Amb10603959
 OpenBabel08272101522D

 88 92  0  0  1  0  0  0  0  0999 V2000
    3.0354   -6.9826    0.0000 O   0  0  0  0  0  0  0  0  0  0  0  0
    3.8444   -7.5704    0.0000 C   0  0  1  0  0  0  0  0  0  0  0  0
    3.2566   -8.3794    0.0000 H   0  0  0  0  0  0  0  0  0  0  0  0
    4.6534   -8.1582    0.0000 C   0  0  0  0  0  0  0  0  0  0  0  0
    4.5489   -9.1527    0.0000 C   0  0  2  0  0  0  0  0  0  0  0  0
    4.9556  -10.0663    0.0000 H   0  0  0  0  0  0  0  0  0  0  0  0
    3.6354   -9.5595    0.0000 C   0  0  0  0  0  0  0  0  0  0  0  0
    3.5308  -10.5540    0.0000 C   0  0  0  0  0  0  0  0  0  0  0  0
    2.6173  -10.9607    0.0000 O   0  0  0  0  0  0  0  0  0  0  0  0
    4.3398  -11.1418    0.0000 O   0  5  0  0  0  0  0  0  0  0  0  0
    5.5434   -9.2573    0.0000 O   0  0  0  0  0  0  0  0  0  0  0  0
    4.4322   -6.7614    0.0000 C   0  0  0  0  0  0  0  0  0  0  0  0
    4.0255   -5.8479    0.0000 C   0  0  0  0  0  0  0  0  0  0  0  0
    4.6132   -5.0388    0.0000 N   0  0  0  0  0  0  0  0  0  0  0  0
    5.6132   -5.0388    0.0000 C   0  0  0  0  0  0  0  0  0  0  0  0
    6.2010   -5.8479    0.0000 C   0  0  0  0  0  0  0  0  0  0  0  0
    7.1956   -5.7433    0.0000 C   0  0  0  0  0  0  0  0  0  0  0  0
    5.7943   -6.7614    0.0000 C   0  0  0  0  0  0  0  0  0  0  0  0
    5.9223   -4.0878    0.0000 C   0  0  0  0  0  0  0  0  0  0  0  0
    5.1132   -3.5000    0.0000 C   0  0  0  0  0  0  0  0  0  0  0  0
    4.3042   -4.0878    0.0000 C   0  0  0  0  0  0  0  0  0  0  0  0
    3.3532   -3.7788    0.0000 C   0  0  0  0  0  0  0  0  0  0  0  0
    3.1453   -2.8006    0.0000 C   0  0  0  0  0  0  0  0  0  0  0  0
    2.1942   -2.4916    0.0000 C   0  0  0  0  0  0  0  0  0  0  0  0
    1.4511   -3.1607    0.0000 C   0  0  0  0  0  0  0  0  0  0  0  0
    1.6590   -4.1389    0.0000 C   0  0  0  0  0  0  0  0  0  0  0  0
    2.6100   -4.4479    0.0000 C   0  0  0  0  0  0  0  0  0  0  0  0
    0.5000   -2.8517    0.0000 F   0  0  0  0  0  0  0  0  0  0  0  0
    5.1132   -2.5000    0.0000 C   0  0  0  0  0  0  0  0  0  0  0  0
    5.9793   -2.0000    0.0000 C   0  0  0  0  0  0  0  0  0  0  0  0
    5.9793   -1.0000    0.0000 C   0  0  0  0  0  0  0  0  0  0  0  0
    5.1132   -0.5000    0.0000 C   0  0  0  0  0  0  0  0  0  0  0  0
    4.2472   -1.0000    0.0000 C   0  0  0  0  0  0  0  0  0  0  0  0
    4.2472   -2.0000    0.0000 C   0  0  0  0  0  0  0  0  0  0  0  0
    6.8733   -3.7788    0.0000 C   0  0  0  0  0  0  0  0  0  0  0  0
    7.0812   -2.8006    0.0000 O   0  0  0  0  0  0  0  0  0  0  0  0
    7.6165   -4.4479    0.0000 N   0  0  0  0  0  0  0  0  0  0  0  0
    8.5675   -4.1389    0.0000 C   0  0  0  0  0  0  0  0  0  0  0  0
    9.3107   -4.8080    0.0000 C   0  0  0  0  0  0  0  0  0  0  0  0
   10.2617   -4.4990    0.0000 C   0  0  0  0  0  0  0  0  0  0  0  0
   10.4696   -3.5208    0.0000 C   0  0  0  0  0  0  0  0  0  0  0  0
    9.7265   -2.8517    0.0000 C   0  0  0  0  0  0  0  0  0  0  0  0
    8.7754   -3.1607    0.0000 C   0  0  0  0  0  0  0  0  0  0  0  0
   17.2858   -8.1582    0.0000 O   0  0  0  0  0  0  0  0  0  0  0  0
   18.0949   -7.5704    0.0000 C   0  0  1  0  0  0  0  0  0  0  0  0
   18.6826   -8.3794    0.0000 H   0  0  0  0  0  0  0  0  0  0  0  0
   18.9039   -6.9826    0.0000 C   0  0  0  0  0  0  0  0  0  0  0  0
   19.8174   -7.3894    0.0000 C   0  0  2  0  0  0  0  0  0  0  0  0
   20.4052   -8.1984    0.0000 H   0  0  0  0  0  0  0  0  0  0  0  0
   20.6264   -6.8016    0.0000 C   0  0  0  0  0  0  0  0  0  0  0  0
   21.5400   -7.2083    0.0000 C   0  0  0  0  0  0  0  0  0  0  0  0
   22.3490   -6.6205    0.0000 O   0  0  0  0  0  0  0  0  0  0  0  0
   21.6445   -8.2028    0.0000 O   0  5  0  0  0  0  0  0  0  0  0  0
   19.4107   -8.3029    0.0000 O   0  0  0  0  0  0  0  0  0  0  0  0
   17.5071   -6.7614    0.0000 C   0  0  0  0  0  0  0  0  0  0  0  0
   17.9138   -5.8479    0.0000 C   0  0  0  0  0  0  0  0  0  0  0  0
   17.3260   -5.0388    0.0000 N   0  0  0  0  0  0  0  0  0  0  0  0
   16.3260   -5.0388    0.0000 C   0  0  0  0  0  0  0  0  0  0  0  0
   15.7382   -5.8479    0.0000 C   0  0  0  0  0  0  0  0  0  0  0  0
   14.7437   -5.7433    0.0000 C   0  0  0  0  0  0  0  0  0  0  0  0
   16.1450   -6.7614    0.0000 C   0  0  0  0  0  0  0  0  0  0  0  0
   16.0170   -4.0878    0.0000 C   0  0  0  0  0  0  0  0  0  0  0  0
   16.8260   -3.5000    0.0000 C   0  0  0  0  0  0  0  0  0  0  0  0
   17.6350   -4.0878    0.0000 C   0  0  0  0  0  0  0  0  0  0  0  0
   18.5861   -3.7788    0.0000 C   0  0  0  0  0  0  0  0  0  0  0  0
   18.7940   -2.8006    0.0000 C   0  0  0  0  0  0  0  0  0  0  0  0
   19.7451   -2.4916    0.0000 C   0  0  0  0  0  0  0  0  0  0  0  0
   20.4882   -3.1607    0.0000 C   0  0  0  0  0  0  0  0  0  0  0  0
   20.2803   -4.1389    0.0000 C   0  0  0  0  0  0  0  0  0  0  0  0
   19.3292   -4.4479    0.0000 C   0  0  0  0  0  0  0  0  0  0  0  0
   21.4393   -2.8517    0.0000 F   0  0  0  0  0  0  0  0  0  0  0  0
   16.8260   -2.5000    0.0000 C   0  0  0  0  0  0  0  0  0  0  0  0
   15.9600   -2.0000    0.0000 C   0  0  0  0  0  0  0  0  0  0  0  0
   15.9600   -1.0000    0.0000 C   0  0  0  0  0  0  0  0  0  0  0  0
   16.8260   -0.5000    0.0000 C   0  0  0  0  0  0  0  0  0  0  0  0
   17.6920   -1.0000    0.0000 C   0  0  0  0  0  0  0  0  0  0  0  0
   17.6920   -2.0000    0.0000 C   0  0  0  0  0  0  0  0  0  0  0  0
   15.0659   -3.7788    0.0000 C   0  0  0  0  0  0  0  0  0  0  0  0
   14.8580   -2.8006    0.0000 O   0  0  0  0  0  0  0  0  0  0  0  0
   14.3228   -4.4479    0.0000 N   0  0  0  0  0  0  0  0  0  0  0  0
   13.3717   -4.1389    0.0000 C   0  0  0  0  0  0  0  0  0  0  0  0
   12.6286   -4.8080    0.0000 C   0  0  0  0  0  0  0  0  0  0  0  0
   11.6775   -4.4990    0.0000 C   0  0  0  0  0  0  0  0  0  0  0  0
   11.4696   -3.5208    0.0000 C   0  0  0  0  0  0  0  0  0  0  0  0
   12.2128   -2.8517    0.0000 C   0  0  0  0  0  0  0  0  0  0  0  0
   13.1638   -3.1607    0.0000 C   0  0  0  0  0  0  0  0  0  0  0  0
    2.4336    1.4015    0.0000 Ca  0  0  0  0  0 15  0  0  0  0  0  0
    0.5000  -13.1418    0.0000 Ca  0  2  0  0  0 15  0  0  0  0  0  0
  1  2  1  0  0  0  0
  2  3  1  1  0  0  0
  2  4  1  0  0  0  0
  2 12  1  0  0  0  0
  4  5  1  0  0  0  0
  5  6  1  6  0  0  0
  5  7  1  0  0  0  0
  5 11  1  0  0  0  0
  7  8  1  0  0  0  0
  8  9  2  0  0  0  0
  8 10  1  0  0  0  0
 12 13  1  0  0  0  0
 13 14  1  0  0  0  0
 14 21  1  0  0  0  0
 14 15  1  0  0  0  0
 15 16  1  0  0  0  0
 15 19  2  0  0  0  0
 16 17  1  0  0  0  0
 16 18  1  0  0  0  0
 19 20  1  0  0  0  0
 19 35  1  0  0  0  0
 20 21  2  0  0  0  0
 20 29  1  0  0  0  0
 21 22  1  0  0  0  0
 22 27  1  0  0  0  0
 22 23  2  0  0  0  0
 23 24  1  0  0  0  0
 24 25  2  0  0  0  0
 25 26  1  0  0  0  0
 25 28  1  0  0  0  0
 26 27  2  0  0  0  0
 29 34  1  0  0  0  0
 29 30  2  0  0  0  0
 30 31  1  0  0  0  0
 31 32  2  0  0  0  0
 32 33  1  0  0  0  0
 33 34  2  0  0  0  0
 35 36  2  0  0  0  0
 35 37  1  0  0  0  0
 37 38  1  0  0  0  0
 38 43  1  0  0  0  0
 38 39  2  0  0  0  0
 39 40  1  0  0  0  0
 40 41  2  0  0  0  0
 41 42  1  0  0  0  0
 42 43  2  0  0  0  0
 44 45  1  0  0  0  0
 45 46  1  1  0  0  0
 45 47  1  0  0  0  0
 45 55  1  0  0  0  0
 47 48  1  0  0  0  0
 48 49  1  1  0  0  0
 48 50  1  0  0  0  0
 48 54  1  0  0  0  0
 50 51  1  0  0  0  0
 51 52  2  0  0  0  0
 51 53  1  0  0  0  0
 55 56  1  0  0  0  0
 56 57  1  0  0  0  0
 57 64  1  0  0  0  0
 57 58  1  0  0  0  0
 58 59  1  0  0  0  0
 58 62  2  0  0  0  0
 59 60  1  0  0  0  0
 59 61  1  0  0  0  0
 62 63  1  0  0  0  0
 62 78  1  0  0  0  0
 63 64  2  0  0  0  0
 63 72  1  0  0  0  0
 64 65  1  0  0  0  0
 65 70  1  0  0  0  0
 65 66  2  0  0  0  0
 66 67  1  0  0  0  0
 67 68  2  0  0  0  0
 68 69  1  0  0  0  0
 68 71  1  0  0  0  0
 69 70  2  0  0  0  0
 72 77  1  0  0  0  0
 72 73  2  0  0  0  0
 73 74  1  0  0  0  0
 74 75  2  0  0  0  0
 75 76  1  0  0  0  0
 76 77  2  0  0  0  0
 78 79  2  0  0  0  0
 78 80  1  0  0  0  0
 80 81  1  0  0  0  0
 81 86  1  0  0  0  0
 81 82  2  0  0  0  0
 82 83  1  0  0  0  0
 83 84  2  0  0  0  0
 84 85  1  0  0  0  0
 85 86  2  0  0  0  0
M  CHG  3  10  -1  53  -1  88   2
M  END
>  <Supplier>
www.ambinter.com

>  <Ambinter_reference>
Amb10603959

>  <MW>
1195.42

$$$$
Amb10843637
 OpenBabel08272101522D

 43 45  0  0  1  0  0  0  0  0999 V2000
    4.2750   -7.9215    0.0000 O   0  0  0  0  0  0  0  0  0  0  0  0
    5.1687   -7.5236    0.0000 C   0  0  1  0  0  0  0  0  0  0  0  0
    5.5666   -8.4173    0.0000 H   0  0  0  0  0  0  0  0  0  0  0  0
    6.0624   -7.1257    0.0000 C   0  0  0  0  0  0  0  0  0  0  0  0
    6.8538   -7.7008    0.0000 C   0  0  2  0  0  0  0  0  0  0  0  0
    7.2517   -8.5944    0.0000 H   0  0  0  0  0  0  0  0  0  0  0  0
    7.7475   -7.3029    0.0000 C   0  0  0  0  0  0  0  0  0  0  0  0
    8.5389   -7.8779    0.0000 C   0  0  0  0  0  0  0  0  0  0  0  0
    9.4326   -7.4800    0.0000 O   0  0  0  0  0  0  0  0  0  0  0  0
    8.4367   -8.8508    0.0000 O   0  5  0  0  0  0  0  0  0  0  0  0
    6.2788   -8.4922    0.0000 O   0  0  0  0  0  0  0  0  0  0  0  0
    4.7708   -6.6300    0.0000 C   0  0  0  0  0  0  0  0  0  0  0  0
    5.3458   -5.8385    0.0000 C   0  0  0  0  0  0  0  0  0  0  0  0
    4.9479   -4.9448    0.0000 N   0  0  0  0  0  0  0  0  0  0  0  0
    3.9911   -4.7414    0.0000 C   0  0  0  0  0  0  0  0  0  0  0  0
    2.5371   -6.0506    0.0000 C   0  0  0  0  0  0  0  0  0  0  0  0
    1.6067   -5.7483    0.0000 C   0  0  0  0  0  0  0  0  0  0  0  0
    2.7405   -7.0075    0.0000 C   0  0  0  0  0  0  0  0  0  0  0  0
    3.8888   -3.7685    0.0000 C   0  0  0  0  0  0  0  0  0  0  0  0
    4.7825   -3.3707    0.0000 C   0  0  0  0  0  0  0  0  0  0  0  0
    5.4371   -4.0976    0.0000 C   0  0  0  0  0  0  0  0  0  0  0  0
    6.4100   -3.9954    0.0000 C   0  0  0  0  0  0  0  0  0  0  0  0
    6.8079   -3.1017    0.0000 C   0  0  0  0  0  0  0  0  0  0  0  0
    7.7808   -2.9994    0.0000 C   0  0  0  0  0  0  0  0  0  0  0  0
    8.3558   -3.7909    0.0000 C   0  0  0  0  0  0  0  0  0  0  0  0
    7.9579   -4.6846    0.0000 C   0  0  0  0  0  0  0  0  0  0  0  0
    6.9850   -4.7868    0.0000 C   0  0  0  0  0  0  0  0  0  0  0  0
    9.3287   -3.6886    0.0000 F   0  0  0  0  0  0  0  0  0  0  0  0
    4.9859   -2.4138    0.0000 C   0  0  0  0  0  0  0  0  0  0  0  0
    4.2589   -1.7592    0.0000 C   0  0  0  0  0  0  0  0  0  0  0  0
    4.4623   -0.8023    0.0000 C   0  0  0  0  0  0  0  0  0  0  0  0
    5.3927   -0.5000    0.0000 C   0  0  0  0  0  0  0  0  0  0  0  0
    6.1196   -1.1546    0.0000 C   0  0  0  0  0  0  0  0  0  0  0  0
    5.9163   -2.1115    0.0000 C   0  0  0  0  0  0  0  0  0  0  0  0
    3.0416   -3.2794    0.0000 C   0  0  0  0  0  0  0  0  0  0  0  0
    3.0416   -2.3012    0.0000 O   0  0  0  0  0  0  0  0  0  0  0  0
    2.1944   -3.7685    0.0000 C   0  0  0  0  0  0  0  0  0  0  0  0
    2.1944   -4.7468    0.0000 C   0  0  0  0  0  0  0  0  0  0  0  0
    1.3472   -5.2359    0.0000 C   0  0  0  0  0  0  0  0  0  0  0  0
    0.5000   -4.7468    0.0000 C   0  0  0  0  0  0  0  0  0  0  0  0
    0.5000   -3.7685    0.0000 C   0  0  0  0  0  0  0  0  0  0  0  0
    1.3472   -3.2794    0.0000 C   0  0  0  0  0  0  0  0  0  0  0  0
   -3.2607   -0.5841    0.0000 Ca  0  2  0  0  0 15  0  0  0  0  0  0
  1  2  1  0  0  0  0
  2  3  1  1  0  0  0
  2  4  1  0  0  0  0
  2 12  1  0  0  0  0
  4  5  1  0  0  0  0
  5  6  1  1  0  0  0
  5  7  1  0  0  0  0
  5 11  1  0  0  0  0
  7  8  1  0  0  0  0
  8  9  2  0  0  0  0
  8 10  1  0  0  0  0
 12 13  1  0  0  0  0
 13 14  1  0  0  0  0
 14 21  1  0  0  0  0
 14 15  1  0  0  0  0
 15 16  1  0  0  0  0
 15 19  2  0  0  0  0
 16 17  1  0  0  0  0
 16 18  1  0  0  0  0
 19 20  1  0  0  0  0
 19 35  1  0  0  0  0
 20 21  2  0  0  0  0
 20 29  1  0  0  0  0
 21 22  1  0  0  0  0
 22 27  1  0  0  0  0
 22 23  2  0  0  0  0
 23 24  1  0  0  0  0
 24 25  2  0  0  0  0
 25 26  1  0  0  0  0
 25 28  1  0  0  0  0
 26 27  2  0  0  0  0
 29 34  1  0  0  0  0
 29 30  2  0  0  0  0
 30 31  1  0  0  0  0
 31 32  2  0  0  0  0
 32 33  1  0  0  0  0
 33 34  2  0  0  0  0
 35 36  2  0  0  0  0
 35 37  1  0  0  0  0
 37 42  1  0  0  0  0
 37 38  2  0  0  0  0
 38 39  1  0  0  0  0
 39 40  2  0  0  0  0
 40 41  1  0  0  0  0
 41 42  2  0  0  0  0
M  CHG  2  10  -1  43   2
M  END
>  <Supplier>
www.ambinter.com

>  <Ambinter_reference>
Amb10843637

>  <MW>
582.695

$$$$
Amb16207450
 OpenBabel08272101522D

 38 42  0  0  0  0  0  0  0  0999 V2000
   -7.4343   -3.6482    0.0000 F   0  0  0  0  0  0  0  0  0  0  0  0
   -6.6911   -2.9791    0.0000 C   0  0  0  0  0  0  0  0  0  0  0  0
   -6.8991   -2.0009    0.0000 C   0  0  0  0  0  0  0  0  0  0  0  0
   -6.1559   -1.3318    0.0000 C   0  0  0  0  0  0  0  0  0  0  0  0
   -5.2049   -1.6408    0.0000 C   0  0  0  0  0  0  0  0  0  0  0  0
   -4.9969   -2.6190    0.0000 C   0  0  0  0  0  0  0  0  0  0  0  0
   -5.7401   -3.2881    0.0000 C   0  0  0  0  0  0  0  0  0  0  0  0
   -4.4617   -0.9717    0.0000 C   0  0  0  0  0  0  0  0  0  0  0  0
   -4.5662    0.0228    0.0000 N   0  0  0  0  0  0  0  0  0  0  0  0
   -5.4323    0.5228    0.0000 C   0  0  0  0  0  0  0  0  0  0  0  0
   -5.4323    1.5228    0.0000 C   0  0  0  0  0  0  0  0  0  0  0  0
   -6.2983    2.0228    0.0000 C   0  0  0  0  0  0  0  0  0  0  0  0
   -7.1643    1.5228    0.0000 C   0  0  0  0  0  0  0  0  0  0  0  0
   -8.0303    2.0228    0.0000 C   0  0  0  0  0  0  0  0  0  0  0  0
   -8.0303    3.0228    0.0000 C   0  0  0  0  0  0  0  0  0  0  0  0
   -7.1643    3.5228    0.0000 C   0  0  0  0  0  0  0  0  0  0  0  0
   -6.2983    3.0228    0.0000 C   0  0  0  0  0  0  0  0  0  0  0  0
   -3.6527    0.4296    0.0000 C   0  0  0  0  0  0  0  0  0  0  0  0
   -2.9836   -0.3136    0.0000 C   0  0  0  0  0  0  0  0  0  0  0  0
   -3.4836   -1.1796    0.0000 C   0  0  0  0  0  0  0  0  0  0  0  0
   -3.0768   -2.0932    0.0000 C   0  0  0  0  0  0  0  0  0  0  0  0
   -2.0823   -2.1977    0.0000 C   0  0  0  0  0  0  0  0  0  0  0  0
   -1.6756   -3.1112    0.0000 C   0  0  0  0  0  0  0  0  0  0  0  0
   -2.2634   -3.9202    0.0000 C   0  0  0  0  0  0  0  0  0  0  0  0
   -3.2579   -3.8157    0.0000 C   0  0  0  0  0  0  0  0  0  0  0  0
   -3.6646   -2.9022    0.0000 C   0  0  0  0  0  0  0  0  0  0  0  0
   -1.9890   -0.2091    0.0000 C   0  0  0  0  0  0  0  0  0  0  0  0
   -1.4013   -1.0181    0.0000 O   0  0  0  0  0  0  0  0  0  0  0  0
   -1.5823    0.7045    0.0000 N   0  0  0  0  0  0  0  0  0  0  0  0
   -0.5878    0.8090    0.0000 C   0  0  0  0  0  0  0  0  0  0  0  0
   -0.1810    1.7226    0.0000 C   0  0  0  0  0  0  0  0  0  0  0  0
    0.8135    1.8271    0.0000 C   0  0  0  0  0  0  0  0  0  0  0  0
    1.4013    1.0181    0.0000 C   0  0  0  0  0  0  0  0  0  0  0  0
    0.9945    0.1045    0.0000 C   0  0  0  0  0  0  0  0  0  0  0  0
    0.0000    0.0000    0.0000 C   0  0  0  0  0  0  0  0  0  0  0  0
   -3.4448    1.4077    0.0000 C   0  0  0  0  0  0  0  0  0  0  0  0
   -2.4937    1.7167    0.0000 C   0  0  0  0  0  0  0  0  0  0  0  0
   -4.1879    2.0768    0.0000 C   0  0  0  0  0  0  0  0  0  0  0  0
  1  2  1  0  0  0  0
  2  7  1  0  0  0  0
  2  3  2  0  0  0  0
  3  4  1  0  0  0  0
  4  5  2  0  0  0  0
  5  6  1  0  0  0  0
  5  8  1  0  0  0  0
  6  7  2  0  0  0  0
  8 20  2  0  0  0  0
  8  9  1  0  0  0  0
  9 10  1  0  0  0  0
  9 18  1  0  0  0  0
 10 11  1  0  0  0  0
 11 12  1  0  0  0  0
 12 17  1  0  0  0  0
 12 13  2  0  0  0  0
 13 14  1  0  0  0  0
 14 15  2  0  0  0  0
 15 16  1  0  0  0  0
 16 17  2  0  0  0  0
 18 19  2  0  0  0  0
 18 36  1  0  0  0  0
 19 20  1  0  0  0  0
 19 27  1  0  0  0  0
 20 21  1  0  0  0  0
 21 26  1  0  0  0  0
 21 22  2  0  0  0  0
 22 23  1  0  0  0  0
 23 24  2  0  0  0  0
 24 25  1  0  0  0  0
 25 26  2  0  0  0  0
 27 28  2  0  0  0  0
 27 29  1  0  0  0  0
 29 30  1  0  0  0  0
 30 35  1  0  0  0  0
 30 31  2  0  0  0  0
 31 32  1  0  0  0  0
 32 33  2  0  0  0  0
 33 34  1  0  0  0  0
 34 35  2  0  0  0  0
 36 37  1  0  0  0  0
 36 38  1  0  0  0  0
M  END
>  <Supplier>
www.ambinter.com

>  <Ambinter_reference>
Amb16207450

>  <MW>
502.621

$$$$
Amb17608545
 OpenBabel08272101522D

 46 50  0  0  1  0  0  0  0  0999 V2000
   -2.3855   -2.4028    0.0000 O   0  0  0  0  0  0  0  0  0  0  0  0
   -1.6084   -1.7734    0.0000 C   0  0  0  0  0  0  0  0  0  0  0  0
   -0.6748   -2.1318    0.0000 O   0  0  0  0  0  0  0  0  0  0  0  0
   -1.7648   -0.7858    0.0000 C   0  0  0  0  0  0  0  0  0  0  0  0
   -0.9877   -0.1564    0.0000 C   0  0  1  0  0  0  0  0  0  0  0  0
   -0.8313   -1.1441    0.0000 H   0  0  0  0  0  0  0  0  0  0  0  0
   -1.6170    0.6207    0.0000 C   0  0  0  0  0  0  0  0  0  0  0  0
   -1.2586    1.5543    0.0000 C   0  0  1  0  0  0  0  0  0  0  0  0
   -0.7815    2.4331    0.0000 H   0  0  0  0  0  0  0  0  0  0  0  0
   -2.2532    1.6588    0.0000 C   0  0  0  0  0  0  0  0  0  0  0  0
   -2.6599    2.5724    0.0000 C   0  0  0  0  0  0  0  0  0  0  0  0
   -3.6544    2.6769    0.0000 N   0  0  0  0  0  0  0  0  0  0  0  0
   -4.3236    1.9337    0.0000 C   0  0  0  0  0  0  0  0  0  0  0  0
   -4.1156    0.9556    0.0000 C   0  0  0  0  0  0  0  0  0  0  0  0
   -4.8588    0.2865    0.0000 C   0  0  0  0  0  0  0  0  0  0  0  0
   -3.1646    0.6466    0.0000 C   0  0  0  0  0  0  0  0  0  0  0  0
   -5.2371    2.3405    0.0000 C   0  0  0  0  0  0  0  0  0  0  0  0
   -5.1326    3.3350    0.0000 C   0  0  0  0  0  0  0  0  0  0  0  0
   -4.1544    3.5429    0.0000 C   0  0  0  0  0  0  0  0  0  0  0  0
   -3.7477    4.4565    0.0000 C   0  0  0  0  0  0  0  0  0  0  0  0
   -4.3355    5.2655    0.0000 C   0  0  0  0  0  0  0  0  0  0  0  0
   -3.9287    6.1790    0.0000 C   0  0  0  0  0  0  0  0  0  0  0  0
   -2.9342    6.2836    0.0000 C   0  0  0  0  0  0  0  0  0  0  0  0
   -2.3464    5.4745    0.0000 C   0  0  0  0  0  0  0  0  0  0  0  0
   -2.7532    4.5610    0.0000 C   0  0  0  0  0  0  0  0  0  0  0  0
   -2.5275    7.1971    0.0000 F   0  0  0  0  0  0  0  0  0  0  0  0
   -5.8757    4.0041    0.0000 C   0  0  0  0  0  0  0  0  0  0  0  0
   -6.8268    3.6951    0.0000 C   0  0  0  0  0  0  0  0  0  0  0  0
   -7.5699    4.3643    0.0000 C   0  0  0  0  0  0  0  0  0  0  0  0
   -7.3620    5.3424    0.0000 C   0  0  0  0  0  0  0  0  0  0  0  0
   -6.4109    5.6514    0.0000 C   0  0  0  0  0  0  0  0  0  0  0  0
   -5.6678    4.9823    0.0000 C   0  0  0  0  0  0  0  0  0  0  0  0
   -6.1031    1.8405    0.0000 C   0  0  0  0  0  0  0  0  0  0  0  0
   -6.9691    2.3405    0.0000 O   0  0  0  0  0  0  0  0  0  0  0  0
   -6.1031    0.8405    0.0000 N   0  0  0  0  0  0  0  0  0  0  0  0
   -6.9691    0.3405    0.0000 C   0  0  0  0  0  0  0  0  0  0  0  0
   -6.9691   -0.6595    0.0000 C   0  0  0  0  0  0  0  0  0  0  0  0
   -7.8352   -1.1595    0.0000 C   0  0  0  0  0  0  0  0  0  0  0  0
   -8.7012   -0.6595    0.0000 C   0  0  0  0  0  0  0  0  0  0  0  0
   -8.7012    0.3405    0.0000 C   0  0  0  0  0  0  0  0  0  0  0  0
   -7.8352    0.8405    0.0000 C   0  0  0  0  0  0  0  0  0  0  0  0
   -0.2710    1.7107    0.0000 O   0  0  0  0  0  0  0  0  0  0  0  0
    0.3584    0.9336    0.0000 C   0  0  0  0  0  0  0  0  0  0  0  0
    0.0000   -0.0000    0.0000 O   0  0  0  0  0  0  0  0  0  0  0  0
    1.2919    0.5752    0.0000 C   0  0  0  0  0  0  0  0  0  0  0  0
    1.1355    1.5629    0.0000 C   0  0  0  0  0  0  0  0  0  0  0  0
  1  2  1  0  0  0  0
  2  3  2  0  0  0  0
  2  4  1  0  0  0  0
  4  5  1  0  0  0  0
  5  6  1  6  0  0  0
  5 44  1  0  0  0  0
  5  7  1  0  0  0  0
  7  8  1  0  0  0  0
  8  9  1  6  0  0  0
  8 10  1  0  0  0  0
  8 42  1  0  0  0  0
 10 11  1  0  0  0  0
 11 12  1  0  0  0  0
 12 19  1  0  0  0  0
 12 13  1  0  0  0  0
 13 14  1  0  0  0  0
 13 17  2  0  0  0  0
 14 15  1  0  0  0  0
 14 16  1  0  0  0  0
 17 18  1  0  0  0  0
 17 33  1  0  0  0  0
 18 19  2  0  0  0  0
 18 27  1  0  0  0  0
 19 20  1  0  0  0  0
 20 25  1  0  0  0  0
 20 21  2  0  0  0  0
 21 22  1  0  0  0  0
 22 23  2  0  0  0  0
 23 24  1  0  0  0  0
 23 26  1  0  0  0  0
 24 25  2  0  0  0  0
 27 32  1  0  0  0  0
 27 28  2  0  0  0  0
 28 29  1  0  0  0  0
 29 30  2  0  0  0  0
 30 31  1  0  0  0  0
 31 32  2  0  0  0  0
 33 34  2  0  0  0  0
 33 35  1  0  0  0  0
 35 36  1  0  0  0  0
 36 41  1  0  0  0  0
 36 37  2  0  0  0  0
 37 38  1  0  0  0  0
 38 39  2  0  0  0  0
 39 40  1  0  0  0  0
 40 41  2  0  0  0  0
 42 43  1  0  0  0  0
 43 44  1  0  0  0  0
 43 45  1  0  0  0  0
 43 46  1  0  0  0  0
M  END
>  <Supplier>
www.ambinter.com

>  <Ambinter_reference>
Amb17608545

>  <MW>
598.704

$$$$
Amb17608546
 OpenBabel08272101522D

 58 63  0  0  1  0  0  0  0  0999 V2000
   -0.8881    3.2673    0.0000 O   0  0  0  0  0  0  0  0  0  0  0  0
   -0.7316    2.2796    0.0000 C   0  0  0  0  0  0  0  0  0  0  0  0
   -1.5088    1.6503    0.0000 O   0  0  0  0  0  0  0  0  0  0  0  0
   -2.4424    2.0087    0.0000 C   0  0  3  0  0  0  0  0  0  0  0  0
   -3.2195    1.3794    0.0000 O   0  0  0  0  0  0  0  0  0  0  0  0
   -4.1531    1.7377    0.0000 C   0  0  3  0  0  0  0  0  0  0  0  0
   -4.9302    1.1084    0.0000 C   0  0  0  0  0  0  0  0  0  0  0  0
   -5.8638    1.4668    0.0000 O   0  0  0  0  0  0  0  0  0  0  0  0
   -4.7738    0.1207    0.0000 O   0  0  0  0  0  0  0  0  0  0  0  0
   -4.3095    2.7254    0.0000 C   0  0  3  0  0  0  0  0  0  0  0  0
   -3.5324    3.3547    0.0000 C   0  0  3  0  0  0  0  0  0  0  0  0
   -2.5988    2.9964    0.0000 C   0  0  3  0  0  0  0  0  0  0  0  0
   -1.8217    3.6257    0.0000 O   0  0  0  0  0  0  0  0  0  0  0  0
   -3.6888    4.3424    0.0000 O   0  0  0  0  0  0  0  0  0  0  0  0
   -5.2431    3.0838    0.0000 O   0  0  0  0  0  0  0  0  0  0  0  0
    0.2019    1.9213    0.0000 C   0  0  0  0  0  0  0  0  0  0  0  0
    0.3584    0.9336    0.0000 C   0  0  1  0  0  0  0  0  0  0  0  0
   -0.5752    1.2919    0.0000 H   0  0  0  0  0  0  0  0  0  0  0  0
    1.3461    1.0900    0.0000 C   0  0  0  0  0  0  0  0  0  0  0  0
    1.9754    0.3129    0.0000 C   0  0  1  0  0  0  0  0  0  0  0  0
    2.4979   -0.5398    0.0000 H   0  0  0  0  0  0  0  0  0  0  0  0
    2.5632    1.1219    0.0000 C   0  0  0  0  0  0  0  0  0  0  0  0
    3.5577    1.0174    0.0000 C   0  0  0  0  0  0  0  0  0  0  0  0
    4.1455    1.8264    0.0000 N   0  0  0  0  0  0  0  0  0  0  0  0
    3.8365    2.7774    0.0000 C   0  0  0  0  0  0  0  0  0  0  0  0
    2.8854    3.0864    0.0000 C   0  0  0  0  0  0  0  0  0  0  0  0
    2.6775    4.0646    0.0000 C   0  0  0  0  0  0  0  0  0  0  0  0
    2.1423    2.4173    0.0000 C   0  0  0  0  0  0  0  0  0  0  0  0
    4.6455    3.3652    0.0000 C   0  0  0  0  0  0  0  0  0  0  0  0
    5.4545    2.7774    0.0000 C   0  0  0  0  0  0  0  0  0  0  0  0
    5.1455    1.8264    0.0000 C   0  0  0  0  0  0  0  0  0  0  0  0
    5.7333    1.0174    0.0000 C   0  0  0  0  0  0  0  0  0  0  0  0
    6.7278    1.1219    0.0000 C   0  0  0  0  0  0  0  0  0  0  0  0
    7.3156    0.3129    0.0000 C   0  0  0  0  0  0  0  0  0  0  0  0
    6.9088   -0.6007    0.0000 C   0  0  0  0  0  0  0  0  0  0  0  0
    5.9143   -0.7052    0.0000 C   0  0  0  0  0  0  0  0  0  0  0  0
    5.3265    0.1038    0.0000 C   0  0  0  0  0  0  0  0  0  0  0  0
    7.4966   -1.4097    0.0000 F   0  0  0  0  0  0  0  0  0  0  0  0
    6.4055    3.0864    0.0000 C   0  0  0  0  0  0  0  0  0  0  0  0
    6.6135    4.0646    0.0000 C   0  0  0  0  0  0  0  0  0  0  0  0
    7.5645    4.3736    0.0000 C   0  0  0  0  0  0  0  0  0  0  0  0
    8.3077    3.7045    0.0000 C   0  0  0  0  0  0  0  0  0  0  0  0
    8.0997    2.7263    0.0000 C   0  0  0  0  0  0  0  0  0  0  0  0
    7.1487    2.4173    0.0000 C   0  0  0  0  0  0  0  0  0  0  0  0
    4.6455    4.3652    0.0000 C   0  0  0  0  0  0  0  0  0  0  0  0
    5.5115    4.8652    0.0000 O   0  0  0  0  0  0  0  0  0  0  0  0
    3.7794    4.8652    0.0000 N   0  0  0  0  0  0  0  0  0  0  0  0
    3.7794    5.8652    0.0000 C   0  0  0  0  0  0  0  0  0  0  0  0
    2.9134    6.3652    0.0000 C   0  0  0  0  0  0  0  0  0  0  0  0
    2.9134    7.3652    0.0000 C   0  0  0  0  0  0  0  0  0  0  0  0
    3.7794    7.8652    0.0000 C   0  0  0  0  0  0  0  0  0  0  0  0
    4.6455    7.3652    0.0000 C   0  0  0  0  0  0  0  0  0  0  0  0
    4.6455    6.3652    0.0000 C   0  0  0  0  0  0  0  0  0  0  0  0
    1.6170   -0.6207    0.0000 O   0  0  0  0  0  0  0  0  0  0  0  0
    0.6293   -0.7771    0.0000 C   0  0  0  0  0  0  0  0  0  0  0  0
   -0.0000   -0.0000    0.0000 O   0  0  0  0  0  0  0  0  0  0  0  0
   -0.1478   -1.4065    0.0000 C   0  0  0  0  0  0  0  0  0  0  0  0
    0.7858   -1.7648    0.0000 C   0  0  0  0  0  0  0  0  0  0  0  0
  1  2  2  0  0  0  0
  2  3  1  0  0  0  0
  2 16  1  0  0  0  0
  3  4  1  0  0  0  0
  4 12  1  0  0  0  0
  4  5  1  0  0  0  0
  5  6  1  0  0  0  0
  6  7  1  0  0  0  0
  6 10  1  0  0  0  0
  7  8  2  0  0  0  0
  7  9  1  0  0  0  0
 10 11  1  0  0  0  0
 10 15  1  0  0  0  0
 11 12  1  0  0  0  0
 11 14  1  0  0  0  0
 12 13  1  0  0  0  0
 16 17  1  0  0  0  0
 17 18  1  6  0  0  0
 17 56  1  0  0  0  0
 17 19  1  0  0  0  0
 19 20  1  0  0  0  0
 20 21  1  6  0  0  0
 20 22  1  0  0  0  0
 20 54  1  0  0  0  0
 22 23  1  0  0  0  0
 23 24  1  0  0  0  0
 24 31  1  0  0  0  0
 24 25  1  0  0  0  0
 25 26  1  0  0  0  0
 25 29  2  0  0  0  0
 26 27  1  0  0  0  0
 26 28  1  0  0  0  0
 29 30  1  0  0  0  0
 29 45  1  0  0  0  0
 30 31  2  0  0  0  0
 30 39  1  0  0  0  0
 31 32  1  0  0  0  0
 32 37  1  0  0  0  0
 32 33  2  0  0  0  0
 33 34  1  0  0  0  0
 34 35  2  0  0  0  0
 35 36  1  0  0  0  0
 35 38  1  0  0  0  0
 36 37  2  0  0  0  0
 39 44  1  0  0  0  0
 39 40  2  0  0  0  0
 40 41  1  0  0  0  0
 41 42  2  0  0  0  0
 42 43  1  0  0  0  0
 43 44  2  0  0  0  0
 45 46  2  0  0  0  0
 45 47  1  0  0  0  0
 47 48  1  0  0  0  0
 48 53  1  0  0  0  0
 48 49  2  0  0  0  0
 49 50  1  0  0  0  0
 50 51  2  0  0  0  0
 51 52  1  0  0  0  0
 52 53  2  0  0  0  0
 54 55  1  0  0  0  0
 55 56  1  0  0  0  0
 55 57  1  0  0  0  0
 55 58  1  0  0  0  0
M  END
>  <Supplier>
www.ambinter.com

>  <Ambinter_reference>
Amb17608546

>  <MW>
774.828

$$$$
Amb17608547
 OpenBabel08272101522D

 56 59  0  0  1  0  0  0  0  0999 V2000
    5.0745    2.9745    0.0000 O   0  0  0  0  0  0  0  0  0  0  0  0
    4.4053    3.7177    0.0000 C   0  0  1  0  0  0  0  0  0  0  0  0
    5.1485    4.3868    0.0000 H   0  0  0  0  0  0  0  0  0  0  0  0
    3.7362    4.4608    0.0000 C   0  0  0  0  0  0  0  0  0  0  0  0
    4.0452    5.4119    0.0000 C   0  0  2  0  0  0  0  0  0  0  0  0
    4.7884    6.0810    0.0000 H   0  0  0  0  0  0  0  0  0  0  0  0
    3.3761    6.1550    0.0000 C   0  0  0  0  0  0  0  0  0  0  0  0
    3.6851    7.1061    0.0000 C   0  0  0  0  0  0  0  0  0  0  0  0
    3.0160    7.8492    0.0000 O   0  0  0  0  0  0  0  0  0  0  0  0
    4.6633    7.3140    0.0000 N   0  0  0  0  0  0  0  0  0  0  0  0
    4.9723    8.2650    0.0000 C   0  0  0  0  0  0  0  0  0  0  0  0
    5.9504    8.4729    0.0000 C   0  0  0  0  0  0  0  0  0  0  0  0
    6.2594    9.4240    0.0000 C   0  0  2  0  0  0  0  0  0  0  0  0
    7.0026   10.0931    0.0000 H   0  0  0  0  0  0  0  0  0  0  0  0
    5.5903   10.1672    0.0000 C   0  0  0  0  0  0  0  0  0  0  0  0
    5.8993   11.1182    0.0000 C   0  0  2  0  0  0  0  0  0  0  0  0
    6.6425   11.7873    0.0000 H   0  0  0  0  0  0  0  0  0  0  0  0
    5.2302   11.8614    0.0000 C   0  0  0  0  0  0  0  0  0  0  0  0
    5.5392   12.8124    0.0000 C   0  0  0  0  0  0  0  0  0  0  0  0
    4.8701   13.5556    0.0000 O   0  0  0  0  0  0  0  0  0  0  0  0
    6.5174   13.0203    0.0000 O   0  5  0  0  0  0  0  0  0  0  0  0
    6.8504   10.8092    0.0000 O   0  0  0  0  0  0  0  0  0  0  0  0
    7.2105    9.1150    0.0000 O   0  0  0  0  0  0  0  0  0  0  0  0
    4.9963    5.1029    0.0000 O   0  0  0  0  0  0  0  0  0  0  0  0
    3.6622    3.0485    0.0000 C   0  0  0  0  0  0  0  0  0  0  0  0
    2.7111    3.3576    0.0000 C   0  0  0  0  0  0  0  0  0  0  0  0
    1.9680    2.6884    0.0000 N   0  0  0  0  0  0  0  0  0  0  0  0
    2.0725    1.6939    0.0000 C   0  0  0  0  0  0  0  0  0  0  0  0
    2.9385    1.1939    0.0000 C   0  0  0  0  0  0  0  0  0  0  0  0
    3.8046    1.6939    0.0000 C   0  0  0  0  0  0  0  0  0  0  0  0
    4.6706    1.1939    0.0000 C   0  0  0  0  0  0  0  0  0  0  0  0
    4.6706    0.1939    0.0000 C   0  0  0  0  0  0  0  0  0  0  0  0
    3.8046   -0.3061    0.0000 C   0  0  0  0  0  0  0  0  0  0  0  0
    2.9385    0.1939    0.0000 C   0  0  0  0  0  0  0  0  0  0  0  0
    5.5366   -0.3061    0.0000 F   0  0  0  0  0  0  0  0  0  0  0  0
    1.1590    1.2872    0.0000 C   0  0  0  0  0  0  0  0  0  0  0  0
    0.4898    2.0303    0.0000 C   0  0  0  0  0  0  0  0  0  0  0  0
    0.9898    2.8963    0.0000 C   0  0  0  0  0  0  0  0  0  0  0  0
    0.5831    3.8099    0.0000 C   0  0  0  0  0  0  0  0  0  0  0  0
    1.1709    4.6189    0.0000 C   0  0  0  0  0  0  0  0  0  0  0  0
   -0.4114    3.9144    0.0000 C   0  0  0  0  0  0  0  0  0  0  0  0
   -0.5047    1.9258    0.0000 C   0  0  0  0  0  0  0  0  0  0  0  0
   -1.0925    2.7348    0.0000 O   0  0  0  0  0  0  0  0  0  0  0  0
   -0.9114    1.0122    0.0000 N   0  0  0  0  0  0  0  0  0  0  0  0
   -1.9059    0.9077    0.0000 C   0  0  0  0  0  0  0  0  0  0  0  0
   -2.3127   -0.0058    0.0000 C   0  0  0  0  0  0  0  0  0  0  0  0
   -3.3072   -0.1104    0.0000 C   0  0  0  0  0  0  0  0  0  0  0  0
   -3.8950    0.6987    0.0000 C   0  0  0  0  0  0  0  0  0  0  0  0
   -3.4882    1.6122    0.0000 C   0  0  0  0  0  0  0  0  0  0  0  0
   -2.4937    1.7167    0.0000 C   0  0  0  0  0  0  0  0  0  0  0  0
    0.9511    0.3090    0.0000 C   0  0  0  0  0  0  0  0  0  0  0  0
    1.6942   -0.3601    0.0000 C   0  0  0  0  0  0  0  0  0  0  0  0
    1.4863   -1.3383    0.0000 C   0  0  0  0  0  0  0  0  0  0  0  0
    0.5352   -1.6473    0.0000 C   0  0  0  0  0  0  0  0  0  0  0  0
   -0.2079   -0.9781    0.0000 C   0  0  0  0  0  0  0  0  0  0  0  0
   -0.0000   -0.0000    0.0000 C   0  0  0  0  0  0  0  0  0  0  0  0
  1  2  1  0  0  0  0
  2  3  1  1  0  0  0
  2  4  1  0  0  0  0
  2 25  1  0  0  0  0
  4  5  1  0  0  0  0
  5  6  1  1  0  0  0
  5  7  1  0  0  0  0
  5 24  1  0  0  0  0
  7  8  1  0  0  0  0
  8  9  2  0  0  0  0
  8 10  1  0  0  0  0
 10 11  1  0  0  0  0
 11 12  1  0  0  0  0
 12 13  1  0  0  0  0
 13 14  1  1  0  0  0
 13 15  1  0  0  0  0
 13 23  1  0  0  0  0
 15 16  1  0  0  0  0
 16 17  1  1  0  0  0
 16 18  1  0  0  0  0
 16 22  1  0  0  0  0
 18 19  1  0  0  0  0
 19 20  2  0  0  0  0
 19 21  1  0  0  0  0
 25 26  1  0  0  0  0
 26 27  1  0  0  0  0
 27 38  1  0  0  0  0
 27 28  1  0  0  0  0
 28 29  1  0  0  0  0
 28 36  2  0  0  0  0
 29 34  1  0  0  0  0
 29 30  2  0  0  0  0
 30 31  1  0  0  0  0
 31 32  2  0  0  0  0
 32 33  1  0  0  0  0
 32 35  1  0  0  0  0
 33 34  2  0  0  0  0
 36 37  1  0  0  0  0
 36 51  1  0  0  0  0
 37 38  2  0  0  0  0
 37 42  1  0  0  0  0
 38 39  1  0  0  0  0
 39 40  1  0  0  0  0
 39 41  1  0  0  0  0
 42 43  2  0  0  0  0
 42 44  1  0  0  0  0
 44 45  1  0  0  0  0
 45 50  1  0  0  0  0
 45 46  2  0  0  0  0
 46 47  1  0  0  0  0
 47 48  2  0  0  0  0
 48 49  1  0  0  0  0
 49 50  2  0  0  0  0
 51 56  1  0  0  0  0
 51 52  2  0  0  0  0
 52 53  1  0  0  0  0
 53 54  2  0  0  0  0
 54 55  1  0  0  0  0
 55 56  2  0  0  0  0
M  CHG  1  21  -1
M  END
>  <Supplier>
www.ambinter.com

>  <Ambinter_reference>
Amb17608547

>  <MW>
716.815

$$$$
Amb17608549
 OpenBabel08272101522D

 44 46  0  0  1  0  0  0  0  0999 V2000
    5.5632   -0.7212    0.0000 O   0  0  0  0  0  0  0  0  0  0  0  0
    4.7541   -1.3090    0.0000 C   0  0  2  0  0  0  0  0  0  0  0  0
    4.1664   -0.5000    0.0000 H   0  0  0  0  0  0  0  0  0  0  0  0
    3.9451   -1.8968    0.0000 C   0  0  0  0  0  0  0  0  0  0  0  0
    3.0316   -1.4901    0.0000 C   0  0  2  0  0  0  0  0  0  0  0  0
    2.4438   -0.6810    0.0000 H   0  0  0  0  0  0  0  0  0  0  0  0
    2.2226   -2.0779    0.0000 C   0  0  0  0  0  0  0  0  0  0  0  0
    1.3090   -1.6711    0.0000 C   0  0  0  0  0  0  0  0  0  0  0  0
    0.5000   -2.2589    0.0000 O   0  0  0  0  0  0  0  0  0  0  0  0
    1.2045   -0.6766    0.0000 O   0  5  0  0  0  0  0  0  0  0  0  0
    3.4383   -0.5765    0.0000 O   0  0  0  0  0  0  0  0  0  0  0  0
    5.3419   -2.1180    0.0000 C   0  0  0  0  0  0  0  0  0  0  0  0
    4.9352   -3.0316    0.0000 C   0  0  0  0  0  0  0  0  0  0  0  0
    5.5230   -3.8406    0.0000 N   0  0  0  0  0  0  0  0  0  0  0  0
    6.5230   -3.8406    0.0000 C   0  0  0  0  0  0  0  0  0  0  0  0
    7.1108   -3.0316    0.0000 C   0  0  0  0  0  0  0  0  0  0  0  0
    8.1053   -3.1361    0.0000 C   0  0  0  0  0  0  0  0  0  0  0  0
    6.7040   -2.1180    0.0000 C   0  0  0  0  0  0  0  0  0  0  0  0
    6.8320   -4.7917    0.0000 C   0  0  0  0  0  0  0  0  0  0  0  0
    6.0230   -5.3794    0.0000 C   0  0  0  0  0  0  0  0  0  0  0  0
    5.2140   -4.7917    0.0000 C   0  0  0  0  0  0  0  0  0  0  0  0
    4.2629   -5.1007    0.0000 C   0  0  0  0  0  0  0  0  0  0  0  0
    4.0550   -6.0788    0.0000 C   0  0  0  0  0  0  0  0  0  0  0  0
    3.1039   -6.3878    0.0000 C   0  0  0  0  0  0  0  0  0  0  0  0
    2.3608   -5.7187    0.0000 C   0  0  0  0  0  0  0  0  0  0  0  0
    2.5687   -4.7406    0.0000 C   0  0  0  0  0  0  0  0  0  0  0  0
    3.5198   -4.4315    0.0000 C   0  0  0  0  0  0  0  0  0  0  0  0
    1.4097   -6.0277    0.0000 F   0  0  0  0  0  0  0  0  0  0  0  0
    6.0230   -6.3794    0.0000 C   0  0  0  0  0  0  0  0  0  0  0  0
    6.8890   -6.8794    0.0000 C   0  0  0  0  0  0  0  0  0  0  0  0
    6.8890   -7.8794    0.0000 C   0  0  0  0  0  0  0  0  0  0  0  0
    6.0230   -8.3794    0.0000 C   0  0  0  0  0  0  0  0  0  0  0  0
    5.1570   -7.8794    0.0000 C   0  0  0  0  0  0  0  0  0  0  0  0
    5.1570   -6.8794    0.0000 C   0  0  0  0  0  0  0  0  0  0  0  0
    7.7830   -5.1007    0.0000 C   0  0  0  0  0  0  0  0  0  0  0  0
    7.9910   -6.0788    0.0000 O   0  0  0  0  0  0  0  0  0  0  0  0
    8.5262   -4.4315    0.0000 N   0  0  0  0  0  0  0  0  0  0  0  0
    9.4773   -4.7406    0.0000 C   0  0  0  0  0  0  0  0  0  0  0  0
   10.2204   -4.0714    0.0000 C   0  0  0  0  0  0  0  0  0  0  0  0
   11.1715   -4.3804    0.0000 C   0  0  0  0  0  0  0  0  0  0  0  0
   11.3794   -5.3586    0.0000 C   0  0  0  0  0  0  0  0  0  0  0  0
   10.6362   -6.0277    0.0000 C   0  0  0  0  0  0  0  0  0  0  0  0
    9.6852   -5.7187    0.0000 C   0  0  0  0  0  0  0  0  0  0  0  0
   -3.5326   -0.6428    0.0000 Na  0  3  0  0  0 15  0  0  0  0  0  0
  1  2  1  0  0  0  0
  2  3  1  6  0  0  0
  2  4  1  0  0  0  0
  2 12  1  0  0  0  0
  4  5  1  0  0  0  0
  5  6  1  1  0  0  0
  5  7  1  0  0  0  0
  5 11  1  0  0  0  0
  7  8  1  0  0  0  0
  8  9  2  0  0  0  0
  8 10  1  0  0  0  0
 12 13  1  0  0  0  0
 13 14  1  0  0  0  0
 14 21  1  0  0  0  0
 14 15  1  0  0  0  0
 15 16  1  0  0  0  0
 15 19  2  0  0  0  0
 16 17  1  0  0  0  0
 16 18  1  0  0  0  0
 19 20  1  0  0  0  0
 19 35  1  0  0  0  0
 20 21  2  0  0  0  0
 20 29  1  0  0  0  0
 21 22  1  0  0  0  0
 22 27  1  0  0  0  0
 22 23  2  0  0  0  0
 23 24  1  0  0  0  0
 24 25  2  0  0  0  0
 25 26  1  0  0  0  0
 25 28  1  0  0  0  0
 26 27  2  0  0  0  0
 29 34  1  0  0  0  0
 29 30  2  0  0  0  0
 30 31  1  0  0  0  0
 31 32  2  0  0  0  0
 32 33  1  0  0  0  0
 33 34  2  0  0  0  0
 35 36  2  0  0  0  0
 35 37  1  0  0  0  0
 37 38  1  0  0  0  0
 38 43  1  0  0  0  0
 38 39  2  0  0  0  0
 39 40  1  0  0  0  0
 40 41  2  0  0  0  0
 41 42  1  0  0  0  0
 42 43  2  0  0  0  0
M  CHG  2  10  -1  44   1
M  END
>  <Supplier>
www.ambinter.com

>  <Ambinter_reference>
Amb17608549

>  <MW>
580.622

$$$$
Amb17608552
 OpenBabel08272101522D

 44 46  0  0  1  0  0  0  0  0999 V2000
    5.5632   -0.7212    0.0000 O   0  0  0  0  0  0  0  0  0  0  0  0
    4.7541   -1.3090    0.0000 C   0  0  1  0  0  0  0  0  0  0  0  0
    4.1664   -0.5000    0.0000 H   0  0  0  0  0  0  0  0  0  0  0  0
    3.9451   -1.8968    0.0000 C   0  0  0  0  0  0  0  0  0  0  0  0
    3.0316   -1.4901    0.0000 C   0  0  2  0  0  0  0  0  0  0  0  0
    2.4438   -0.6810    0.0000 H   0  0  0  0  0  0  0  0  0  0  0  0
    2.2226   -2.0779    0.0000 C   0  0  0  0  0  0  0  0  0  0  0  0
    1.3090   -1.6711    0.0000 C   0  0  0  0  0  0  0  0  0  0  0  0
    0.5000   -2.2589    0.0000 O   0  0  0  0  0  0  0  0  0  0  0  0
    1.2045   -0.6766    0.0000 O   0  5  0  0  0  0  0  0  0  0  0  0
    3.4383   -0.5765    0.0000 O   0  0  0  0  0  0  0  0  0  0  0  0
    5.3419   -2.1180    0.0000 C   0  0  0  0  0  0  0  0  0  0  0  0
    4.9352   -3.0316    0.0000 C   0  0  0  0  0  0  0  0  0  0  0  0
    5.5230   -3.8406    0.0000 N   0  0  0  0  0  0  0  0  0  0  0  0
    6.5230   -3.8406    0.0000 C   0  0  0  0  0  0  0  0  0  0  0  0
    7.1108   -3.0316    0.0000 C   0  0  0  0  0  0  0  0  0  0  0  0
    8.1053   -3.1361    0.0000 C   0  0  0  0  0  0  0  0  0  0  0  0
    6.7040   -2.1180    0.0000 C   0  0  0  0  0  0  0  0  0  0  0  0
    6.8320   -4.7917    0.0000 C   0  0  0  0  0  0  0  0  0  0  0  0
    6.0230   -5.3794    0.0000 C   0  0  0  0  0  0  0  0  0  0  0  0
    5.2140   -4.7917    0.0000 C   0  0  0  0  0  0  0  0  0  0  0  0
    4.2629   -5.1007    0.0000 C   0  0  0  0  0  0  0  0  0  0  0  0
    4.0550   -6.0788    0.0000 C   0  0  0  0  0  0  0  0  0  0  0  0
    3.1039   -6.3878    0.0000 C   0  0  0  0  0  0  0  0  0  0  0  0
    2.3608   -5.7187    0.0000 C   0  0  0  0  0  0  0  0  0  0  0  0
    2.5687   -4.7406    0.0000 C   0  0  0  0  0  0  0  0  0  0  0  0
    3.5198   -4.4315    0.0000 C   0  0  0  0  0  0  0  0  0  0  0  0
    1.4097   -6.0277    0.0000 F   0  0  0  0  0  0  0  0  0  0  0  0
    6.0230   -6.3794    0.0000 C   0  0  0  0  0  0  0  0  0  0  0  0
    6.8890   -6.8794    0.0000 C   0  0  0  0  0  0  0  0  0  0  0  0
    6.8890   -7.8794    0.0000 C   0  0  0  0  0  0  0  0  0  0  0  0
    6.0230   -8.3794    0.0000 C   0  0  0  0  0  0  0  0  0  0  0  0
    5.1570   -7.8794    0.0000 C   0  0  0  0  0  0  0  0  0  0  0  0
    5.1570   -6.8794    0.0000 C   0  0  0  0  0  0  0  0  0  0  0  0
    7.7830   -5.1007    0.0000 C   0  0  0  0  0  0  0  0  0  0  0  0
    7.9910   -6.0788    0.0000 O   0  0  0  0  0  0  0  0  0  0  0  0
    8.5262   -4.4315    0.0000 N   0  0  0  0  0  0  0  0  0  0  0  0
    9.4773   -4.7406    0.0000 C   0  0  0  0  0  0  0  0  0  0  0  0
   10.2204   -4.0714    0.0000 C   0  0  0  0  0  0  0  0  0  0  0  0
   11.1715   -4.3804    0.0000 C   0  0  0  0  0  0  0  0  0  0  0  0
   11.3794   -5.3586    0.0000 C   0  0  0  0  0  0  0  0  0  0  0  0
   10.6362   -6.0277    0.0000 C   0  0  0  0  0  0  0  0  0  0  0  0
    9.6852   -5.7187    0.0000 C   0  0  0  0  0  0  0  0  0  0  0  0
   -3.5326   -0.6428    0.0000 C   0  0  0  0  0  0  0  0  0  0  0  0
  1  2  1  0  0  0  0
  2  3  1  1  0  0  0
  2  4  1  0  0  0  0
  2 12  1  0  0  0  0
  4  5  1  0  0  0  0
  5  6  1  1  0  0  0
  5  7  1  0  0  0  0
  5 11  1  0  0  0  0
  7  8  1  0  0  0  0
  8  9  2  0  0  0  0
  8 10  1  0  0  0  0
 12 13  1  0  0  0  0
 13 14  1  0  0  0  0
 14 21  1  0  0  0  0
 14 15  1  0  0  0  0
 15 16  1  0  0  0  0
 15 19  2  0  0  0  0
 16 17  1  0  0  0  0
 16 18  1  0  0  0  0
 19 20  1  0  0  0  0
 19 35  1  0  0  0  0
 20 21  2  0  0  0  0
 20 29  1  0  0  0  0
 21 22  1  0  0  0  0
 22 27  1  0  0  0  0
 22 23  2  0  0  0  0
 23 24  1  0  0  0  0
 24 25  2  0  0  0  0
 25 26  1  0  0  0  0
 25 28  1  0  0  0  0
 26 27  2  0  0  0  0
 29 34  1  0  0  0  0
 29 30  2  0  0  0  0
 30 31  1  0  0  0  0
 31 32  2  0  0  0  0
 32 33  1  0  0  0  0
 33 34  2  0  0  0  0
 35 36  2  0  0  0  0
 35 37  1  0  0  0  0
 37 38  1  0  0  0  0
 38 43  1  0  0  0  0
 38 39  2  0  0  0  0
 39 40  1  0  0  0  0
 40 41  2  0  0  0  0
 41 42  1  0  0  0  0
 42 43  2  0  0  0  0
M  CHG  1  10  -1
M  END
>  <Supplier>
www.ambinter.com

>  <Ambinter_reference>
Amb17608552

>  <MW>
573.674

$$$$
Amb17608553
 OpenBabel08272101522D

 49 51  0  0  1  0  0  0  0  0999 V2000
    6.2044   -9.9725    0.0000 O   0  0  0  0  0  0  0  0  0  0  0  0
    6.9978   -9.3960    0.0000 C   0  0  1  0  0  0  0  0  0  0  0  0
    7.5743  -10.1894    0.0000 H   0  0  0  0  0  0  0  0  0  0  0  0
    7.7913   -8.8195    0.0000 C   0  0  0  0  0  0  0  0  0  0  0  0
    8.6872   -9.2184    0.0000 C   0  0  2  0  0  0  0  0  0  0  0  0
    9.2637  -10.0119    0.0000 H   0  0  0  0  0  0  0  0  0  0  0  0
    9.4807   -8.6419    0.0000 C   0  0  0  0  0  0  0  0  0  0  0  0
   10.3767   -9.0409    0.0000 C   0  0  0  0  0  0  0  0  0  0  0  0
   11.1701   -8.4644    0.0000 O   0  0  0  0  0  0  0  0  0  0  0  0
   10.4792  -10.0163    0.0000 O   0  5  0  0  0  0  0  0  0  0  0  0
    8.2883  -10.1144    0.0000 O   0  0  0  0  0  0  0  0  0  0  0  0
    6.4213   -8.6025    0.0000 C   0  0  0  0  0  0  0  0  0  0  0  0
    6.8202   -7.7066    0.0000 C   0  0  0  0  0  0  0  0  0  0  0  0
    6.2438   -6.9131    0.0000 N   0  0  0  0  0  0  0  0  0  0  0  0
    5.2630   -6.9131    0.0000 C   0  0  0  0  0  0  0  0  0  0  0  0
    4.6865   -7.7066    0.0000 C   0  0  0  0  0  0  0  0  0  0  0  0
    3.7111   -7.6040    0.0000 C   0  0  0  0  0  0  0  0  0  0  0  0
    5.0854   -8.6025    0.0000 C   0  0  0  0  0  0  0  0  0  0  0  0
    4.9599   -5.9803    0.0000 C   0  0  0  0  0  0  0  0  0  0  0  0
    5.7534   -5.4038    0.0000 C   0  0  0  0  0  0  0  0  0  0  0  0
    6.5468   -5.9803    0.0000 C   0  0  0  0  0  0  0  0  0  0  0  0
    7.4796   -5.6773    0.0000 C   0  0  0  0  0  0  0  0  0  0  0  0
    7.6835   -4.7179    0.0000 C   0  0  0  0  0  0  0  0  0  0  0  0
    8.6163   -4.4148    0.0000 C   0  0  0  0  0  0  0  0  0  0  0  0
    9.3451   -5.0711    0.0000 C   0  0  0  0  0  0  0  0  0  0  0  0
    9.1412   -6.0304    0.0000 C   0  0  0  0  0  0  0  0  0  0  0  0
    8.2085   -6.3335    0.0000 C   0  0  0  0  0  0  0  0  0  0  0  0
   10.2779   -4.7680    0.0000 F   0  0  0  0  0  0  0  0  0  0  0  0
    5.7534   -3.4423    0.0000 C   0  0  0  0  0  0  0  0  0  0  0  0
    4.9040   -2.9519    0.0000 C   0  0  0  0  0  0  0  0  0  0  0  0
    4.0546   -3.4423    0.0000 H   0  0  0  0  0  0  0  0  0  0  0  0
    4.9040   -1.9712    0.0000 C   0  0  0  0  0  0  0  0  0  0  0  0
    4.0546   -1.4808    0.0000 H   0  0  0  0  0  0  0  0  0  0  0  0
    5.7534   -1.4808    0.0000 C   0  0  0  0  0  0  0  0  0  0  0  0
    6.6028   -1.9712    0.0000 C   0  0  0  0  0  0  0  0  0  0  0  0
    6.6028   -2.9519    0.0000 C   0  0  0  0  0  0  0  0  0  0  0  0
    7.4521   -3.4423    0.0000 H   0  0  0  0  0  0  0  0  0  0  0  0
    7.4521   -1.4808    0.0000 H   0  0  0  0  0  0  0  0  0  0  0  0
    5.7534   -0.5000    0.0000 H   0  0  0  0  0  0  0  0  0  0  0  0
    4.0272   -5.6773    0.0000 C   0  0  0  0  0  0  0  0  0  0  0  0
    3.8232   -4.7179    0.0000 O   0  0  0  0  0  0  0  0  0  0  0  0
    3.2983   -6.3335    0.0000 N   0  0  0  0  0  0  0  0  0  0  0  0
    2.3655   -6.0304    0.0000 C   0  0  0  0  0  0  0  0  0  0  0  0
    1.6367   -6.6867    0.0000 C   0  0  0  0  0  0  0  0  0  0  0  0
    0.7039   -6.3836    0.0000 C   0  0  0  0  0  0  0  0  0  0  0  0
    0.5000   -5.4243    0.0000 C   0  0  0  0  0  0  0  0  0  0  0  0
    1.2289   -4.7680    0.0000 C   0  0  0  0  0  0  0  0  0  0  0  0
    2.1616   -5.0711    0.0000 C   0  0  0  0  0  0  0  0  0  0  0  0
   -3.6597   -0.8448    0.0000 Na  0  3  0  0  0 15  0  0  0  0  0  0
  1  2  1  0  0  0  0
  2  3  1  1  0  0  0
  2  4  1  0  0  0  0
  2 12  1  0  0  0  0
  4  5  1  0  0  0  0
  5  6  1  1  0  0  0
  5  7  1  0  0  0  0
  5 11  1  0  0  0  0
  7  8  1  0  0  0  0
  8  9  2  0  0  0  0
  8 10  1  0  0  0  0
 12 13  1  0  0  0  0
 13 14  1  0  0  0  0
 14 21  1  0  0  0  0
 14 15  1  0  0  0  0
 15 16  1  0  0  0  0
 15 19  2  0  0  0  0
 16 17  1  0  0  0  0
 16 18  1  0  0  0  0
 19 20  1  0  0  0  0
 19 40  1  0  0  0  0
 20 21  2  0  0  0  0
 20 29  1  0  0  0  0
 21 22  1  0  0  0  0
 22 27  1  0  0  0  0
 22 23  2  0  0  0  0
 23 24  1  0  0  0  0
 24 25  2  0  0  0  0
 25 26  1  0  0  0  0
 25 28  1  0  0  0  0
 26 27  2  0  0  0  0
 29 36  1  0  0  0  0
 29 30  2  0  0  0  0
 30 31  1  0  0  0  0
 30 32  1  0  0  0  0
 32 33  1  0  0  0  0
 32 34  2  0  0  0  0
 34 35  1  0  0  0  0
 34 39  1  0  0  0  0
 35 36  2  0  0  0  0
 35 38  1  0  0  0  0
 36 37  1  0  0  0  0
 40 41  2  0  0  0  0
 40 42  1  0  0  0  0
 42 43  1  0  0  0  0
 43 48  1  0  0  0  0
 43 44  2  0  0  0  0
 44 45  1  0  0  0  0
 45 46  2  0  0  0  0
 46 47  1  0  0  0  0
 47 48  2  0  0  0  0
M  ISO  5  31   2  33   2  37   2  38   2  39   2
M  CHG  2  10  -1  49   1
M  END
>  <Supplier>
www.ambinter.com

>  <Ambinter_reference>
Amb17608553

>  <MW>
585.652

$$$$
Amb17608554
 OpenBabel08272101522D

 55 59  0  0  1  0  0  0  0  0999 V2000
   -6.9720   -2.7389    0.0000 O   0  0  0  0  0  0  0  0  0  0  0  0
   -6.8675   -1.7443    0.0000 C   0  0  1  0  0  0  0  0  0  0  0  0
   -6.0585   -2.3321    0.0000 H   0  0  0  0  0  0  0  0  0  0  0  0
   -7.8620   -1.6398    0.0000 C   0  0  0  0  0  0  0  0  0  0  0  0
   -8.4498   -2.4488    0.0000 C   0  0  2  0  0  0  0  0  0  0  0  0
   -8.5543   -3.4433    0.0000 H   0  0  0  0  0  0  0  0  0  0  0  0
   -9.4443   -2.3443    0.0000 C   0  0  0  0  0  0  0  0  0  0  0  0
   -9.8511   -1.4307    0.0000 C   0  0  0  0  0  0  0  0  0  0  0  0
   -9.2633   -0.6217    0.0000 O   0  0  0  0  0  0  0  0  0  0  0  0
  -10.8456   -1.3262    0.0000 O   0  0  0  0  0  0  0  0  0  0  0  0
  -11.2523   -0.4127    0.0000 C   0  0  3  0  0  0  0  0  0  0  0  0
  -12.2469   -0.3081    0.0000 O   0  0  0  0  0  0  0  0  0  0  0  0
  -12.6536    0.6054    0.0000 C   0  0  3  0  0  0  0  0  0  0  0  0
  -13.6481    0.7099    0.0000 C   0  0  0  0  0  0  0  0  0  0  0  0
  -14.0549    1.6235    0.0000 O   0  0  0  0  0  0  0  0  0  0  0  0
  -14.2359   -0.0991    0.0000 O   0  0  0  0  0  0  0  0  0  0  0  0
  -12.0658    1.4144    0.0000 C   0  0  3  0  0  0  0  0  0  0  0  0
  -11.0713    1.3099    0.0000 C   0  0  3  0  0  0  0  0  0  0  0  0
  -10.6646    0.3963    0.0000 C   0  0  3  0  0  0  0  0  0  0  0  0
   -9.6700    0.2918    0.0000 O   0  0  0  0  0  0  0  0  0  0  0  0
  -10.4835    2.1189    0.0000 O   0  0  0  0  0  0  0  0  0  0  0  0
  -12.4725    2.3280    0.0000 O   0  0  0  0  0  0  0  0  0  0  0  0
   -7.6408   -3.0366    0.0000 O   0  0  0  0  0  0  0  0  0  0  0  0
   -6.2797   -0.9353    0.0000 C   0  0  0  0  0  0  0  0  0  0  0  0
   -5.2852   -1.0398    0.0000 C   0  0  0  0  0  0  0  0  0  0  0  0
   -4.6974   -0.2308    0.0000 N   0  0  0  0  0  0  0  0  0  0  0  0
   -3.6974   -0.2308    0.0000 C   0  0  0  0  0  0  0  0  0  0  0  0
   -3.1096   -1.0398    0.0000 C   0  0  0  0  0  0  0  0  0  0  0  0
   -2.1151   -0.9353    0.0000 C   0  0  0  0  0  0  0  0  0  0  0  0
   -3.5164   -1.9534    0.0000 C   0  0  0  0  0  0  0  0  0  0  0  0
   -3.3884    0.7202    0.0000 C   0  0  0  0  0  0  0  0  0  0  0  0
   -4.1974    1.3080    0.0000 C   0  0  0  0  0  0  0  0  0  0  0  0
   -5.0064    0.7202    0.0000 C   0  0  0  0  0  0  0  0  0  0  0  0
   -5.9575    1.0292    0.0000 C   0  0  0  0  0  0  0  0  0  0  0  0
   -6.1654    2.0074    0.0000 C   0  0  0  0  0  0  0  0  0  0  0  0
   -7.1165    2.3164    0.0000 C   0  0  0  0  0  0  0  0  0  0  0  0
   -7.8596    1.6473    0.0000 C   0  0  0  0  0  0  0  0  0  0  0  0
   -7.6517    0.6691    0.0000 C   0  0  0  0  0  0  0  0  0  0  0  0
   -6.7006    0.3601    0.0000 C   0  0  0  0  0  0  0  0  0  0  0  0
   -8.8107    1.9563    0.0000 F   0  0  0  0  0  0  0  0  0  0  0  0
   -4.1974    2.3080    0.0000 C   0  0  0  0  0  0  0  0  0  0  0  0
   -3.3314    2.8080    0.0000 C   0  0  0  0  0  0  0  0  0  0  0  0
   -3.3314    3.8080    0.0000 C   0  0  0  0  0  0  0  0  0  0  0  0
   -4.1974    4.3080    0.0000 C   0  0  0  0  0  0  0  0  0  0  0  0
   -5.0634    3.8080    0.0000 C   0  0  0  0  0  0  0  0  0  0  0  0
   -5.0634    2.8080    0.0000 C   0  0  0  0  0  0  0  0  0  0  0  0
   -2.4373    1.0292    0.0000 C   0  0  0  0  0  0  0  0  0  0  0  0
   -2.2294    2.0074    0.0000 O   0  0  0  0  0  0  0  0  0  0  0  0
   -1.6942    0.3601    0.0000 N   0  0  0  0  0  0  0  0  0  0  0  0
   -0.7431    0.6691    0.0000 C   0  0  0  0  0  0  0  0  0  0  0  0
   -0.5352    1.6473    0.0000 C   0  0  0  0  0  0  0  0  0  0  0  0
    0.4158    1.9563    0.0000 C   0  0  0  0  0  0  0  0  0  0  0  0
    1.1590    1.2872    0.0000 C   0  0  0  0  0  0  0  0  0  0  0  0
    0.9511    0.3090    0.0000 C   0  0  0  0  0  0  0  0  0  0  0  0
    0.0000    0.0000    0.0000 C   0  0  0  0  0  0  0  0  0  0  0  0
  1  2  1  0  0  0  0
  2  3  1  6  0  0  0
  2  4  1  0  0  0  0
  2 24  1  0  0  0  0
  4  5  1  0  0  0  0
  5  6  1  6  0  0  0
  5  7  1  0  0  0  0
  5 23  1  0  0  0  0
  7  8  1  0  0  0  0
  8  9  2  0  0  0  0
  8 10  1  0  0  0  0
 10 11  1  0  0  0  0
 11 19  1  0  0  0  0
 11 12  1  0  0  0  0
 12 13  1  0  0  0  0
 13 14  1  0  0  0  0
 13 17  1  0  0  0  0
 14 15  2  0  0  0  0
 14 16  1  0  0  0  0
 17 18  1  0  0  0  0
 17 22  1  0  0  0  0
 18 19  1  0  0  0  0
 18 21  1  0  0  0  0
 19 20  1  0  0  0  0
 24 25  1  0  0  0  0
 25 26  1  0  0  0  0
 26 33  1  0  0  0  0
 26 27  1  0  0  0  0
 27 28  1  0  0  0  0
 27 31  2  0  0  0  0
 28 29  1  0  0  0  0
 28 30  1  0  0  0  0
 31 32  1  0  0  0  0
 31 47  1  0  0  0  0
 32 33  2  0  0  0  0
 32 41  1  0  0  0  0
 33 34  1  0  0  0  0
 34 39  1  0  0  0  0
 34 35  2  0  0  0  0
 35 36  1  0  0  0  0
 36 37  2  0  0  0  0
 37 38  1  0  0  0  0
 37 40  1  0  0  0  0
 38 39  2  0  0  0  0
 41 46  1  0  0  0  0
 41 42  2  0  0  0  0
 42 43  1  0  0  0  0
 43 44  2  0  0  0  0
 44 45  1  0  0  0  0
 45 46  2  0  0  0  0
 47 48  2  0  0  0  0
 47 49  1  0  0  0  0
 49 50  1  0  0  0  0
 50 55  1  0  0  0  0
 50 51  2  0  0  0  0
 51 52  1  0  0  0  0
 52 53  2  0  0  0  0
 53 54  1  0  0  0  0
 54 55  2  0  0  0  0
M  END
>  <Supplier>
www.ambinter.com

>  <Ambinter_reference>
Amb17608554

>  <MW>
734.764

$$$$
Amb17608558
 OpenBabel08272101522D

 47 51  0  0  1  0  0  0  0  0999 V2000
    1.2678    1.4080    0.0000 O   0  0  0  0  0  0  0  0  0  0  0  0
    0.8225    0.5342    0.0000 C   0  0  2  0  0  0  0  0  0  0  0  0
    0.2884    1.3567    0.0000 H   0  0  0  0  0  0  0  0  0  0  0  0
    1.6964    0.0889    0.0000 C   0  0  0  0  0  0  0  0  0  0  0  0
    1.7477   -0.8905    0.0000 C   0  0  1  0  0  0  0  0  0  0  0  0
    1.6708   -1.8683    0.0000 H   0  0  0  0  0  0  0  0  0  0  0  0
    2.6805   -0.5874    0.0000 C   0  0  0  0  0  0  0  0  0  0  0  0
    3.4094   -1.2437    0.0000 C   0  0  0  0  0  0  0  0  0  0  0  0
    4.3421   -0.9406    0.0000 N   0  0  0  0  0  0  0  0  0  0  0  0
    4.6452   -0.0079    0.0000 C   0  0  0  0  0  0  0  0  0  0  0  0
    4.0687    0.7856    0.0000 C   0  0  0  0  0  0  0  0  0  0  0  0
    4.4676    1.6816    0.0000 C   0  0  0  0  0  0  0  0  0  0  0  0
    3.0933    0.6831    0.0000 C   0  0  0  0  0  0  0  0  0  0  0  0
    5.6260   -0.0079    0.0000 C   0  0  0  0  0  0  0  0  0  0  0  0
    5.9290   -0.9406    0.0000 C   0  0  0  0  0  0  0  0  0  0  0  0
    5.1356   -1.5171    0.0000 C   0  0  0  0  0  0  0  0  0  0  0  0
    5.1356   -2.4979    0.0000 C   0  0  0  0  0  0  0  0  0  0  0  0
    5.9850   -2.9883    0.0000 C   0  0  0  0  0  0  0  0  0  0  0  0
    5.9850   -3.9690    0.0000 C   0  0  0  0  0  0  0  0  0  0  0  0
    5.1356   -4.4594    0.0000 C   0  0  0  0  0  0  0  0  0  0  0  0
    4.2862   -3.9690    0.0000 C   0  0  0  0  0  0  0  0  0  0  0  0
    4.2862   -2.9883    0.0000 C   0  0  0  0  0  0  0  0  0  0  0  0
    5.1356   -5.4402    0.0000 F   0  0  0  0  0  0  0  0  0  0  0  0
    7.7946   -1.5468    0.0000 C   0  0  0  0  0  0  0  0  0  0  0  0
    8.5234   -0.8905    0.0000 C   0  0  0  0  0  0  0  0  0  0  0  0
    8.3195    0.0688    0.0000 H   0  0  0  0  0  0  0  0  0  0  0  0
    9.4562   -1.1936    0.0000 C   0  0  0  0  0  0  0  0  0  0  0  0
   10.1851   -0.5373    0.0000 H   0  0  0  0  0  0  0  0  0  0  0  0
    9.6601   -2.1529    0.0000 C   0  0  0  0  0  0  0  0  0  0  0  0
    8.9313   -2.8092    0.0000 C   0  0  0  0  0  0  0  0  0  0  0  0
    7.9985   -2.5061    0.0000 C   0  0  0  0  0  0  0  0  0  0  0  0
    7.2696   -3.1624    0.0000 H   0  0  0  0  0  0  0  0  0  0  0  0
    9.1352   -3.7685    0.0000 H   0  0  0  0  0  0  0  0  0  0  0  0
   10.5929   -2.4560    0.0000 H   0  0  0  0  0  0  0  0  0  0  0  0
    6.2025    0.7856    0.0000 C   0  0  0  0  0  0  0  0  0  0  0  0
    7.1779    0.6831    0.0000 O   0  0  0  0  0  0  0  0  0  0  0  0
    5.8035    1.6816    0.0000 N   0  0  0  0  0  0  0  0  0  0  0  0
    6.3800    2.4750    0.0000 C   0  0  0  0  0  0  0  0  0  0  0  0
    5.9811    3.3710    0.0000 C   0  0  0  0  0  0  0  0  0  0  0  0
    6.5576    4.1645    0.0000 C   0  0  0  0  0  0  0  0  0  0  0  0
    7.5330    4.0619    0.0000 C   0  0  0  0  0  0  0  0  0  0  0  0
    7.9319    3.1660    0.0000 C   0  0  0  0  0  0  0  0  0  0  0  0
    7.3554    2.3725    0.0000 C   0  0  0  0  0  0  0  0  0  0  0  0
    0.9252   -1.4247    0.0000 O   0  0  0  0  0  0  0  0  0  0  0  0
    0.0513   -0.9794    0.0000 C   0  0  0  0  0  0  0  0  0  0  0  0
   -0.7712   -1.5136    0.0000 O   0  0  0  0  0  0  0  0  0  0  0  0
   -0.0000   -0.0000    0.0000 C   0  0  0  0  0  0  0  0  0  0  0  0
  1  2  1  0  0  0  0
  2  3  1  1  0  0  0
  2 47  1  0  0  0  0
  2  4  1  0  0  0  0
  4  5  1  0  0  0  0
  5  6  1  6  0  0  0
  5  7  1  0  0  0  0
  5 44  1  0  0  0  0
  7  8  1  0  0  0  0
  8  9  1  0  0  0  0
  9 16  1  0  0  0  0
  9 10  1  0  0  0  0
 10 11  1  0  0  0  0
 10 14  2  0  0  0  0
 11 12  1  0  0  0  0
 11 13  1  0  0  0  0
 14 15  1  0  0  0  0
 14 35  1  0  0  0  0
 15 16  2  0  0  0  0
 15 24  1  0  0  0  0
 16 17  1  0  0  0  0
 17 22  1  0  0  0  0
 17 18  2  0  0  0  0
 18 19  1  0  0  0  0
 19 20  2  0  0  0  0
 20 21  1  0  0  0  0
 20 23  1  0  0  0  0
 21 22  2  0  0  0  0
 24 31  1  0  0  0  0
 24 25  2  0  0  0  0
 25 26  1  0  0  0  0
 25 27  1  0  0  0  0
 27 28  1  0  0  0  0
 27 29  2  0  0  0  0
 29 30  1  0  0  0  0
 29 34  1  0  0  0  0
 30 31  2  0  0  0  0
 30 33  1  0  0  0  0
 31 32  1  0  0  0  0
 35 36  2  0  0  0  0
 35 37  1  0  0  0  0
 37 38  1  0  0  0  0
 38 43  1  0  0  0  0
 38 39  2  0  0  0  0
 39 40  1  0  0  0  0
 40 41  2  0  0  0  0
 41 42  1  0  0  0  0
 42 43  2  0  0  0  0
 44 45  1  0  0  0  0
 45 46  2  0  0  0  0
 45 47  1  0  0  0  0
M  ISO  5  26   2  28   2  32   2  33   2  34   2
M  END
>  <Supplier>
www.ambinter.com

>  <Ambinter_reference>
Amb17608558

>  <MW>
545.655

$$$$
Amb17608560
 OpenBabel08272101522D

 54 59  0  0  1  0  0  0  0  0999 V2000
    2.0981   -3.0981    0.0000 O   0  0  0  0  0  0  0  0  0  0  0  0
    2.5981   -2.2321    0.0000 C   0  0  0  0  0  0  0  0  0  0  0  0
    2.0981   -1.3660    0.0000 C   0  0  0  0  0  0  0  0  0  0  0  0
    2.5981   -0.5000    0.0000 C   0  0  1  0  0  0  0  0  0  0  0  0
    2.5981    0.5000    0.0000 H   0  0  0  0  0  0  0  0  0  0  0  0
    3.5981   -0.5000    0.0000 C   0  0  0  0  0  0  0  0  0  0  0  0
    4.0981   -1.3660    0.0000 C   0  0  2  0  0  0  0  0  0  0  0  0
    4.4808   -2.2899    0.0000 H   0  0  0  0  0  0  0  0  0  0  0  0
    3.5981   -2.2321    0.0000 O   0  0  0  0  0  0  0  0  0  0  0  0
    4.8052   -0.6589    0.0000 C   0  0  0  0  0  0  0  0  0  0  0  0
    5.7711   -0.9177    0.0000 C   0  0  0  0  0  0  0  0  0  0  0  0
    6.4782   -0.2106    0.0000 N   0  0  0  0  0  0  0  0  0  0  0  0
    6.3218    0.7771    0.0000 C   0  0  0  0  0  0  0  0  0  0  0  0
    5.4308    1.2310    0.0000 C   0  0  0  0  0  0  0  0  0  0  0  0
    5.3784    2.2297    0.0000 C   0  0  0  0  0  0  0  0  0  0  0  0
    4.5921    0.6864    0.0000 C   0  0  0  0  0  0  0  0  0  0  0  0
    7.2128    1.2310    0.0000 C   0  0  0  0  0  0  0  0  0  0  0  0
    7.9199    0.5239    0.0000 C   0  0  0  0  0  0  0  0  0  0  0  0
    7.4659   -0.3671    0.0000 C   0  0  0  0  0  0  0  0  0  0  0  0
    7.9199   -1.2581    0.0000 C   0  0  0  0  0  0  0  0  0  0  0  0
    8.9185   -1.3104    0.0000 C   0  0  0  0  0  0  0  0  0  0  0  0
    9.3725   -2.2014    0.0000 C   0  0  0  0  0  0  0  0  0  0  0  0
    8.8279   -3.0401    0.0000 C   0  0  0  0  0  0  0  0  0  0  0  0
    7.8292   -2.9877    0.0000 C   0  0  0  0  0  0  0  0  0  0  0  0
    7.3753   -2.0967    0.0000 C   0  0  0  0  0  0  0  0  0  0  0  0
    9.2819   -3.9311    0.0000 F   0  0  0  0  0  0  0  0  0  0  0  0
    8.9076    0.6804    0.0000 C   0  0  0  0  0  0  0  0  0  0  0  0
    9.2660    1.6140    0.0000 C   0  0  0  0  0  0  0  0  0  0  0  0
   10.2536    1.7704    0.0000 C   0  0  0  0  0  0  0  0  0  0  0  0
   10.8830    0.9932    0.0000 C   0  0  0  0  0  0  0  0  0  0  0  0
   10.5246    0.0597    0.0000 C   0  0  0  0  0  0  0  0  0  0  0  0
    9.5369   -0.0968    0.0000 C   0  0  0  0  0  0  0  0  0  0  0  0
    7.3692    2.2187    0.0000 C   0  0  0  0  0  0  0  0  0  0  0  0
    8.3028    2.5771    0.0000 O   0  0  0  0  0  0  0  0  0  0  0  0
    6.5921    2.8481    0.0000 N   0  0  0  0  0  0  0  0  0  0  0  0
    6.7485    3.8357    0.0000 C   0  0  0  0  0  0  0  0  0  0  0  0
    5.9714    4.4651    0.0000 C   0  0  0  0  0  0  0  0  0  0  0  0
    6.1278    5.4528    0.0000 C   0  0  0  0  0  0  0  0  0  0  0  0
    7.0614    5.8111    0.0000 C   0  0  0  0  0  0  0  0  0  0  0  0
    7.8385    5.1818    0.0000 C   0  0  0  0  0  0  0  0  0  0  0  0
    7.6821    4.1941    0.0000 C   0  0  0  0  0  0  0  0  0  0  0  0
    1.7321   -0.0000    0.0000 O   0  0  0  0  0  0  0  0  0  0  0  0
    0.8660   -0.5000    0.0000 C   0  0  3  0  0  0  0  0  0  0  0  0
    0.8660   -1.5000    0.0000 O   0  0  0  0  0  0  0  0  0  0  0  0
    0.0000   -2.0000    0.0000 C   0  0  3  0  0  0  0  0  0  0  0  0
    0.0000   -3.0000    0.0000 C   0  0  0  0  0  0  0  0  0  0  0  0
   -0.8660   -3.5000    0.0000 O   0  0  0  0  0  0  0  0  0  0  0  0
    0.8660   -3.5000    0.0000 O   0  0  0  0  0  0  0  0  0  0  0  0
   -0.8660   -1.5000    0.0000 C   0  0  3  0  0  0  0  0  0  0  0  0
   -0.8660   -0.5000    0.0000 C   0  0  3  0  0  0  0  0  0  0  0  0
   -0.0000   -0.0000    0.0000 C   0  0  3  0  0  0  0  0  0  0  0  0
   -0.0000    1.0000    0.0000 O   0  0  0  0  0  0  0  0  0  0  0  0
   -1.7321   -0.0000    0.0000 O   0  0  0  0  0  0  0  0  0  0  0  0
   -1.7321   -2.0000    0.0000 O   0  0  0  0  0  0  0  0  0  0  0  0
  1  2  2  0  0  0  0
  2  9  1  0  0  0  0
  2  3  1  0  0  0  0
  3  4  1  0  0  0  0
  4  5  1  1  0  0  0
  4  6  1  0  0  0  0
  4 42  1  0  0  0  0
  6  7  1  0  0  0  0
  7  8  1  6  0  0  0
  7  9  1  0  0  0  0
  7 10  1  0  0  0  0
 10 11  1  0  0  0  0
 11 12  1  0  0  0  0
 12 19  1  0  0  0  0
 12 13  1  0  0  0  0
 13 14  1  0  0  0  0
 13 17  2  0  0  0  0
 14 15  1  0  0  0  0
 14 16  1  0  0  0  0
 17 18  1  0  0  0  0
 17 33  1  0  0  0  0
 18 19  2  0  0  0  0
 18 27  1  0  0  0  0
 19 20  1  0  0  0  0
 20 25  1  0  0  0  0
 20 21  2  0  0  0  0
 21 22  1  0  0  0  0
 22 23  2  0  0  0  0
 23 24  1  0  0  0  0
 23 26  1  0  0  0  0
 24 25  2  0  0  0  0
 27 32  1  0  0  0  0
 27 28  2  0  0  0  0
 28 29  1  0  0  0  0
 29 30  2  0  0  0  0
 30 31  1  0  0  0  0
 31 32  2  0  0  0  0
 33 34  2  0  0  0  0
 33 35  1  0  0  0  0
 35 36  1  0  0  0  0
 36 41  1  0  0  0  0
 36 37  2  0  0  0  0
 37 38  1  0  0  0  0
 38 39  2  0  0  0  0
 39 40  1  0  0  0  0
 40 41  2  0  0  0  0
 42 43  1  0  0  0  0
 43 51  1  0  0  0  0
 43 44  1  0  0  0  0
 44 45  1  0  0  0  0
 45 46  1  0  0  0  0
 45 49  1  0  0  0  0
 46 47  2  0  0  0  0
 46 48  1  0  0  0  0
 49 50  1  0  0  0  0
 49 54  1  0  0  0  0
 50 51  1  0  0  0  0
 50 53  1  0  0  0  0
 51 52  1  0  0  0  0
M  END
>  <Supplier>
www.ambinter.com

>  <Ambinter_reference>
Amb17608560

>  <MW>
716.749

$$$$
Amb17608561
 OpenBabel08272101522D

 44 46  0  0  1  0  0  0  0  0999 V2000
    5.5632   -0.7212    0.0000 O   0  0  0  0  0  0  0  0  0  0  0  0
    4.7541   -1.3090    0.0000 C   0  0  1  0  0  0  0  0  0  0  0  0
    4.1664   -0.5000    0.0000 H   0  0  0  0  0  0  0  0  0  0  0  0
    3.9451   -1.8968    0.0000 C   0  0  0  0  0  0  0  0  0  0  0  0
    3.0316   -1.4901    0.0000 C   0  0  1  0  0  0  0  0  0  0  0  0
    2.4438   -0.6810    0.0000 H   0  0  0  0  0  0  0  0  0  0  0  0
    2.2226   -2.0779    0.0000 C   0  0  0  0  0  0  0  0  0  0  0  0
    1.3090   -1.6711    0.0000 C   0  0  0  0  0  0  0  0  0  0  0  0
    0.5000   -2.2589    0.0000 O   0  0  0  0  0  0  0  0  0  0  0  0
    1.2045   -0.6766    0.0000 O   0  5  0  0  0  0  0  0  0  0  0  0
    3.4383   -0.5765    0.0000 O   0  0  0  0  0  0  0  0  0  0  0  0
    5.3419   -2.1180    0.0000 C   0  0  0  0  0  0  0  0  0  0  0  0
    4.9352   -3.0316    0.0000 C   0  0  0  0  0  0  0  0  0  0  0  0
    5.5230   -3.8406    0.0000 N   0  0  0  0  0  0  0  0  0  0  0  0
    6.5230   -3.8406    0.0000 C   0  0  0  0  0  0  0  0  0  0  0  0
    7.1108   -3.0316    0.0000 C   0  0  0  0  0  0  0  0  0  0  0  0
    8.1053   -3.1361    0.0000 C   0  0  0  0  0  0  0  0  0  0  0  0
    6.7040   -2.1180    0.0000 C   0  0  0  0  0  0  0  0  0  0  0  0
    6.8320   -4.7917    0.0000 C   0  0  0  0  0  0  0  0  0  0  0  0
    6.0230   -5.3794    0.0000 C   0  0  0  0  0  0  0  0  0  0  0  0
    5.2140   -4.7917    0.0000 C   0  0  0  0  0  0  0  0  0  0  0  0
    4.2629   -5.1007    0.0000 C   0  0  0  0  0  0  0  0  0  0  0  0
    4.0550   -6.0788    0.0000 C   0  0  0  0  0  0  0  0  0  0  0  0
    3.1039   -6.3878    0.0000 C   0  0  0  0  0  0  0  0  0  0  0  0
    2.3608   -5.7187    0.0000 C   0  0  0  0  0  0  0  0  0  0  0  0
    2.5687   -4.7406    0.0000 C   0  0  0  0  0  0  0  0  0  0  0  0
    3.5198   -4.4315    0.0000 C   0  0  0  0  0  0  0  0  0  0  0  0
    1.4097   -6.0277    0.0000 F   0  0  0  0  0  0  0  0  0  0  0  0
    6.0230   -6.3794    0.0000 C   0  0  0  0  0  0  0  0  0  0  0  0
    6.8890   -6.8794    0.0000 C   0  0  0  0  0  0  0  0  0  0  0  0
    6.8890   -7.8794    0.0000 C   0  0  0  0  0  0  0  0  0  0  0  0
    6.0230   -8.3794    0.0000 C   0  0  0  0  0  0  0  0  0  0  0  0
    5.1570   -7.8794    0.0000 C   0  0  0  0  0  0  0  0  0  0  0  0
    5.1570   -6.8794    0.0000 C   0  0  0  0  0  0  0  0  0  0  0  0
    7.7830   -5.1007    0.0000 C   0  0  0  0  0  0  0  0  0  0  0  0
    7.9910   -6.0788    0.0000 O   0  0  0  0  0  0  0  0  0  0  0  0
    8.5262   -4.4315    0.0000 N   0  0  0  0  0  0  0  0  0  0  0  0
    9.4773   -4.7406    0.0000 C   0  0  0  0  0  0  0  0  0  0  0  0
   10.2204   -4.0714    0.0000 C   0  0  0  0  0  0  0  0  0  0  0  0
   11.1715   -4.3804    0.0000 C   0  0  0  0  0  0  0  0  0  0  0  0
   11.3794   -5.3586    0.0000 C   0  0  0  0  0  0  0  0  0  0  0  0
   10.6362   -6.0277    0.0000 C   0  0  0  0  0  0  0  0  0  0  0  0
    9.6852   -5.7187    0.0000 C   0  0  0  0  0  0  0  0  0  0  0  0
   -3.5326   -0.6428    0.0000 Na  0  3  0  0  0 15  0  0  0  0  0  0
  1  2  1  0  0  0  0
  2  3  1  1  0  0  0
  2  4  1  0  0  0  0
  2 12  1  0  0  0  0
  4  5  1  0  0  0  0
  5  6  1  6  0  0  0
  5  7  1  0  0  0  0
  5 11  1  0  0  0  0
  7  8  1  0  0  0  0
  8  9  2  0  0  0  0
  8 10  1  0  0  0  0
 12 13  1  0  0  0  0
 13 14  1  0  0  0  0
 14 21  1  0  0  0  0
 14 15  1  0  0  0  0
 15 16  1  0  0  0  0
 15 19  2  0  0  0  0
 16 17  1  0  0  0  0
 16 18  1  0  0  0  0
 19 20  1  0  0  0  0
 19 35  1  0  0  0  0
 20 21  2  0  0  0  0
 20 29  1  0  0  0  0
 21 22  1  0  0  0  0
 22 27  1  0  0  0  0
 22 23  2  0  0  0  0
 23 24  1  0  0  0  0
 24 25  2  0  0  0  0
 25 26  1  0  0  0  0
 25 28  1  0  0  0  0
 26 27  2  0  0  0  0
 29 34  1  0  0  0  0
 29 30  2  0  0  0  0
 30 31  1  0  0  0  0
 31 32  2  0  0  0  0
 32 33  1  0  0  0  0
 33 34  2  0  0  0  0
 35 36  2  0  0  0  0
 35 37  1  0  0  0  0
 37 38  1  0  0  0  0
 38 43  1  0  0  0  0
 38 39  2  0  0  0  0
 39 40  1  0  0  0  0
 40 41  2  0  0  0  0
 41 42  1  0  0  0  0
 42 43  2  0  0  0  0
M  CHG  2  10  -1  44   1
M  END
>  <Supplier>
www.ambinter.com

>  <Ambinter_reference>
Amb17608561

>  <MW>
580.622

$$$$
Amb17608568
 OpenBabel08272101522D

 47 50  0  0  1  0  0  0  0  0999 V2000
    4.1220   -4.9975    0.0000 O   0  0  0  0  0  0  0  0  0  0  0  0
    4.9310   -4.4097    0.0000 C   0  0  1  0  0  0  0  0  0  0  0  0
    5.5188   -5.2187    0.0000 H   0  0  0  0  0  0  0  0  0  0  0  0
    5.7400   -3.8219    0.0000 C   0  0  0  0  0  0  0  0  0  0  0  0
    6.6536   -4.2286    0.0000 C   0  0  1  0  0  0  0  0  0  0  0  0
    7.2414   -5.0377    0.0000 H   0  0  0  0  0  0  0  0  0  0  0  0
    7.4626   -3.6409    0.0000 C   0  0  0  0  0  0  0  0  0  0  0  0
    8.3761   -4.0476    0.0000 C   0  0  0  0  0  0  0  0  0  0  0  0
    9.1852   -3.4598    0.0000 O   0  0  0  0  0  0  0  0  0  0  0  0
    8.4807   -5.0421    0.0000 O   0  0  0  0  0  0  0  0  0  0  0  0
    9.3942   -5.4488    0.0000 C   0  0  0  0  0  0  0  0  0  0  0  0
    9.9820   -6.2579    0.0000 C   0  0  0  0  0  0  0  0  0  0  0  0
    8.9875   -6.3624    0.0000 C   0  0  0  0  0  0  0  0  0  0  0  0
   10.2032   -4.8611    0.0000 C   0  0  0  0  0  0  0  0  0  0  0  0
    6.2468   -5.1422    0.0000 O   0  0  0  0  0  0  0  0  0  0  0  0
    4.3432   -3.6007    0.0000 C   0  0  0  0  0  0  0  0  0  0  0  0
    4.7500   -2.6871    0.0000 C   0  0  0  0  0  0  0  0  0  0  0  0
    4.1622   -1.8781    0.0000 N   0  0  0  0  0  0  0  0  0  0  0  0
    3.1622   -1.8781    0.0000 C   0  0  0  0  0  0  0  0  0  0  0  0
    2.5744   -2.6871    0.0000 C   0  0  0  0  0  0  0  0  0  0  0  0
    1.5799   -2.5826    0.0000 C   0  0  0  0  0  0  0  0  0  0  0  0
    2.9811   -3.6007    0.0000 C   0  0  0  0  0  0  0  0  0  0  0  0
    2.8532   -0.9271    0.0000 C   0  0  0  0  0  0  0  0  0  0  0  0
    3.6622   -0.3393    0.0000 C   0  0  0  0  0  0  0  0  0  0  0  0
    4.4712   -0.9271    0.0000 C   0  0  0  0  0  0  0  0  0  0  0  0
    5.4223   -0.6180    0.0000 C   0  0  0  0  0  0  0  0  0  0  0  0
    5.6302    0.3601    0.0000 C   0  0  0  0  0  0  0  0  0  0  0  0
    6.5812    0.6691    0.0000 C   0  0  0  0  0  0  0  0  0  0  0  0
    7.3244   -0.0000    0.0000 C   0  0  0  0  0  0  0  0  0  0  0  0
    7.1165   -0.9781    0.0000 C   0  0  0  0  0  0  0  0  0  0  0  0
    6.1654   -1.2872    0.0000 C   0  0  0  0  0  0  0  0  0  0  0  0
    8.2754    0.3090    0.0000 F   0  0  0  0  0  0  0  0  0  0  0  0
    3.6622    0.6607    0.0000 C   0  0  0  0  0  0  0  0  0  0  0  0
    2.7962    1.1607    0.0000 C   0  0  0  0  0  0  0  0  0  0  0  0
    2.7962    2.1607    0.0000 C   0  0  0  0  0  0  0  0  0  0  0  0
    3.6622    2.6607    0.0000 C   0  0  0  0  0  0  0  0  0  0  0  0
    4.5282    2.1607    0.0000 C   0  0  0  0  0  0  0  0  0  0  0  0
    4.5282    1.1607    0.0000 C   0  0  0  0  0  0  0  0  0  0  0  0
    1.9021   -0.6180    0.0000 C   0  0  0  0  0  0  0  0  0  0  0  0
    1.6942    0.3601    0.0000 O   0  0  0  0  0  0  0  0  0  0  0  0
    1.1590   -1.2872    0.0000 N   0  0  0  0  0  0  0  0  0  0  0  0
    0.2079   -0.9781    0.0000 C   0  0  0  0  0  0  0  0  0  0  0  0
   -0.5352   -1.6473    0.0000 C   0  0  0  0  0  0  0  0  0  0  0  0
   -1.4863   -1.3383    0.0000 C   0  0  0  0  0  0  0  0  0  0  0  0
   -1.6942   -0.3601    0.0000 C   0  0  0  0  0  0  0  0  0  0  0  0
   -0.9511    0.3090    0.0000 C   0  0  0  0  0  0  0  0  0  0  0  0
    0.0000    0.0000    0.0000 C   0  0  0  0  0  0  0  0  0  0  0  0
  1  2  1  0  0  0  0
  2  3  1  1  0  0  0
  2  4  1  0  0  0  0
  2 16  1  0  0  0  0
  4  5  1  0  0  0  0
  5  6  1  6  0  0  0
  5  7  1  0  0  0  0
  5 15  1  0  0  0  0
  7  8  1  0  0  0  0
  8  9  2  0  0  0  0
  8 10  1  0  0  0  0
 10 11  1  0  0  0  0
 11 12  1  0  0  0  0
 11 13  1  0  0  0  0
 11 14  1  0  0  0  0
 16 17  1  0  0  0  0
 17 18  1  0  0  0  0
 18 25  1  0  0  0  0
 18 19  1  0  0  0  0
 19 20  1  0  0  0  0
 19 23  2  0  0  0  0
 20 21  1  0  0  0  0
 20 22  1  0  0  0  0
 23 24  1  0  0  0  0
 23 39  1  0  0  0  0
 24 25  2  0  0  0  0
 24 33  1  0  0  0  0
 25 26  1  0  0  0  0
 26 31  1  0  0  0  0
 26 27  2  0  0  0  0
 27 28  1  0  0  0  0
 28 29  2  0  0  0  0
 29 30  1  0  0  0  0
 29 32  1  0  0  0  0
 30 31  2  0  0  0  0
 33 38  1  0  0  0  0
 33 34  2  0  0  0  0
 34 35  1  0  0  0  0
 35 36  2  0  0  0  0
 36 37  1  0  0  0  0
 37 38  2  0  0  0  0
 39 40  2  0  0  0  0
 39 41  1  0  0  0  0
 41 42  1  0  0  0  0
 42 47  1  0  0  0  0
 42 43  2  0  0  0  0
 43 44  1  0  0  0  0
 44 45  2  0  0  0  0
 45 46  1  0  0  0  0
 46 47  2  0  0  0  0
M  END
>  <Supplier>
www.ambinter.com

>  <Ambinter_reference>
Amb17608568

>  <MW>
614.746

$$$$
Amb17609209
 OpenBabel08272101522D

 54 59  0  0  1  0  0  0  0  0999 V2000
   -2.3855   -2.4028    0.0000 O   0  0  0  0  0  0  0  0  0  0  0  0
   -1.6084   -1.7734    0.0000 C   0  0  0  0  0  0  0  0  0  0  0  0
   -0.6748   -2.1318    0.0000 O   0  0  0  0  0  0  0  0  0  0  0  0
   -1.7648   -0.7858    0.0000 C   0  0  0  0  0  0  0  0  0  0  0  0
   -0.9877   -0.1564    0.0000 C   0  0  1  0  0  0  0  0  0  0  0  0
   -0.8313   -1.1441    0.0000 H   0  0  0  0  0  0  0  0  0  0  0  0
   -1.6170    0.6207    0.0000 C   0  0  0  0  0  0  0  0  0  0  0  0
   -1.2586    1.5543    0.0000 C   0  0  1  0  0  0  0  0  0  0  0  0
   -0.7815    2.4331    0.0000 H   0  0  0  0  0  0  0  0  0  0  0  0
   -2.2532    1.6588    0.0000 C   0  0  0  0  0  0  0  0  0  0  0  0
   -2.6599    2.5724    0.0000 C   0  0  0  0  0  0  0  0  0  0  0  0
   -3.6544    2.6769    0.0000 N   0  0  0  0  0  0  0  0  0  0  0  0
   -4.3236    1.9337    0.0000 C   0  0  0  0  0  0  0  0  0  0  0  0
   -4.1156    0.9556    0.0000 C   0  0  0  0  0  0  0  0  0  0  0  0
   -4.8588    0.2865    0.0000 C   0  0  0  0  0  0  0  0  0  0  0  0
   -3.1646    0.6466    0.0000 C   0  0  0  0  0  0  0  0  0  0  0  0
   -5.2371    2.3405    0.0000 C   0  0  0  0  0  0  0  0  0  0  0  0
   -5.1326    3.3350    0.0000 C   0  0  0  0  0  0  0  0  0  0  0  0
   -4.1544    3.5429    0.0000 C   0  0  0  0  0  0  0  0  0  0  0  0
   -3.7477    4.4565    0.0000 C   0  0  0  0  0  0  0  0  0  0  0  0
   -4.3355    5.2655    0.0000 C   0  0  0  0  0  0  0  0  0  0  0  0
   -3.9287    6.1790    0.0000 C   0  0  0  0  0  0  0  0  0  0  0  0
   -2.9342    6.2836    0.0000 C   0  0  0  0  0  0  0  0  0  0  0  0
   -2.3464    5.4745    0.0000 C   0  0  0  0  0  0  0  0  0  0  0  0
   -2.7532    4.5610    0.0000 C   0  0  0  0  0  0  0  0  0  0  0  0
   -2.5275    7.1971    0.0000 F   0  0  0  0  0  0  0  0  0  0  0  0
   -5.8757    4.0041    0.0000 C   0  0  0  0  0  0  0  0  0  0  0  0
   -6.8268    3.6951    0.0000 C   0  0  0  0  0  0  0  0  0  0  0  0
   -7.5699    4.3643    0.0000 C   0  0  0  0  0  0  0  0  0  0  0  0
   -7.3620    5.3424    0.0000 C   0  0  0  0  0  0  0  0  0  0  0  0
   -6.4109    5.6514    0.0000 C   0  0  0  0  0  0  0  0  0  0  0  0
   -5.6678    4.9823    0.0000 C   0  0  0  0  0  0  0  0  0  0  0  0
   -6.1031    1.8405    0.0000 C   0  0  0  0  0  0  0  0  0  0  0  0
   -6.9691    2.3405    0.0000 O   0  0  0  0  0  0  0  0  0  0  0  0
   -6.1031    0.8405    0.0000 N   0  0  0  0  0  0  0  0  0  0  0  0
   -6.9691    0.3405    0.0000 C   0  0  0  0  0  0  0  0  0  0  0  0
   -6.9691   -0.6595    0.0000 C   0  0  0  0  0  0  0  0  0  0  0  0
   -7.8352   -1.1595    0.0000 C   0  0  0  0  0  0  0  0  0  0  0  0
   -8.7012   -0.6595    0.0000 C   0  0  0  0  0  0  0  0  0  0  0  0
   -8.7012    0.3405    0.0000 C   0  0  0  0  0  0  0  0  0  0  0  0
   -7.8352    0.8405    0.0000 C   0  0  0  0  0  0  0  0  0  0  0  0
   -7.8352    1.8405    0.0000 O   0  0  0  0  0  0  0  0  0  0  0  0
   -8.7012    2.3405    0.0000 C   0  0  0  0  0  0  0  0  0  0  0  0
   -8.7012    3.3405    0.0000 C   0  0  0  0  0  0  0  0  0  0  0  0
   -9.5672    3.8405    0.0000 C   0  0  0  0  0  0  0  0  0  0  0  0
   -9.5672    4.8405    0.0000 C   0  0  0  0  0  0  0  0  0  0  0  0
   -8.7012    5.3405    0.0000 C   0  0  0  0  0  0  0  0  0  0  0  0
   -7.8352    4.8405    0.0000 C   0  0  0  0  0  0  0  0  0  0  0  0
   -7.8352    3.8405    0.0000 C   0  0  0  0  0  0  0  0  0  0  0  0
   -0.2710    1.7107    0.0000 O   0  0  0  0  0  0  0  0  0  0  0  0
    0.3584    0.9336    0.0000 C   0  0  0  0  0  0  0  0  0  0  0  0
    0.0000   -0.0000    0.0000 O   0  0  0  0  0  0  0  0  0  0  0  0
    1.2919    0.5752    0.0000 C   0  0  0  0  0  0  0  0  0  0  0  0
    1.1355    1.5629    0.0000 C   0  0  0  0  0  0  0  0  0  0  0  0
  1  2  1  0  0  0  0
  2  3  2  0  0  0  0
  2  4  1  0  0  0  0
  4  5  1  0  0  0  0
  5  6  1  6  0  0  0
  5 52  1  0  0  0  0
  5  7  1  0  0  0  0
  7  8  1  0  0  0  0
  8  9  1  6  0  0  0
  8 10  1  0  0  0  0
  8 50  1  0  0  0  0
 10 11  1  0  0  0  0
 11 12  1  0  0  0  0
 12 19  1  0  0  0  0
 12 13  1  0  0  0  0
 13 14  1  0  0  0  0
 13 17  2  0  0  0  0
 14 15  1  0  0  0  0
 14 16  1  0  0  0  0
 17 18  1  0  0  0  0
 17 33  1  0  0  0  0
 18 19  2  0  0  0  0
 18 27  1  0  0  0  0
 19 20  1  0  0  0  0
 20 25  1  0  0  0  0
 20 21  2  0  0  0  0
 21 22  1  0  0  0  0
 22 23  2  0  0  0  0
 23 24  1  0  0  0  0
 23 26  1  0  0  0  0
 24 25  2  0  0  0  0
 27 32  1  0  0  0  0
 27 28  2  0  0  0  0
 28 29  1  0  0  0  0
 29 30  2  0  0  0  0
 30 31  1  0  0  0  0
 31 32  2  0  0  0  0
 33 34  2  0  0  0  0
 33 35  1  0  0  0  0
 35 36  1  0  0  0  0
 36 41  1  0  0  0  0
 36 37  2  0  0  0  0
 37 38  1  0  0  0  0
 38 39  2  0  0  0  0
 39 40  1  0  0  0  0
 40 41  2  0  0  0  0
 41 42  1  0  0  0  0
 42 43  1  0  0  0  0
 43 44  1  0  0  0  0
 44 49  1  0  0  0  0
 44 45  2  0  0  0  0
 45 46  1  0  0  0  0
 46 47  2  0  0  0  0
 47 48  1  0  0  0  0
 48 49  2  0  0  0  0
 50 51  1  0  0  0  0
 51 52  1  0  0  0  0
 51 53  1  0  0  0  0
 51 54  1  0  0  0  0
M  END
>  <Supplier>
www.ambinter.com

>  <Ambinter_reference>
Amb17609209

>  <MW>
704.826

$$$$
Amb17609270
 OpenBabel08272101522D

 63 68  0  0  1  0  0  0  0  0999 V2000
    2.3510    2.3679    0.0000 O   0  0  0  0  0  0  0  0  0  0  0  0
    1.5851    1.7477    0.0000 C   0  0  0  0  0  0  0  0  0  0  0  0
    0.6650    2.1009    0.0000 O   0  0  0  0  0  0  0  0  0  0  0  0
   -0.1008    1.4807    0.0000 C   0  0  0  0  0  0  0  0  0  0  0  0
   -1.0742    1.3265    0.0000 C   0  0  0  0  0  0  0  0  0  0  0  0
   -0.7210    2.2466    0.0000 C   0  0  0  0  0  0  0  0  0  0  0  0
    0.0533    0.5073    0.0000 C   0  0  0  0  0  0  0  0  0  0  0  0
    1.7393    0.7744    0.0000 C   0  0  0  0  0  0  0  0  0  0  0  0
    0.9734    0.1542    0.0000 C   0  0  1  0  0  0  0  0  0  0  0  0
    0.8192    1.1275    0.0000 H   0  0  0  0  0  0  0  0  0  0  0  0
    1.5936   -0.6117    0.0000 C   0  0  0  0  0  0  0  0  0  0  0  0
    1.2404   -1.5318    0.0000 C   0  0  1  0  0  0  0  0  0  0  0  0
    0.7702   -2.3978    0.0000 H   0  0  0  0  0  0  0  0  0  0  0  0
    2.2205   -1.6348    0.0000 C   0  0  0  0  0  0  0  0  0  0  0  0
    2.6214   -2.5351    0.0000 C   0  0  0  0  0  0  0  0  0  0  0  0
    3.6015   -2.6381    0.0000 N   0  0  0  0  0  0  0  0  0  0  0  0
    4.2609   -1.9057    0.0000 C   0  0  0  0  0  0  0  0  0  0  0  0
    4.0560   -0.9418    0.0000 C   0  0  0  0  0  0  0  0  0  0  0  0
    4.7884   -0.2823    0.0000 C   0  0  0  0  0  0  0  0  0  0  0  0
    3.1187   -0.6372    0.0000 C   0  0  0  0  0  0  0  0  0  0  0  0
    5.1612   -2.3066    0.0000 C   0  0  0  0  0  0  0  0  0  0  0  0
    5.0582   -3.2867    0.0000 C   0  0  0  0  0  0  0  0  0  0  0  0
    4.0942   -3.4916    0.0000 C   0  0  0  0  0  0  0  0  0  0  0  0
    3.6934   -4.3919    0.0000 C   0  0  0  0  0  0  0  0  0  0  0  0
    4.2726   -5.1892    0.0000 C   0  0  0  0  0  0  0  0  0  0  0  0
    3.8718   -6.0895    0.0000 C   0  0  0  0  0  0  0  0  0  0  0  0
    2.8917   -6.1925    0.0000 C   0  0  0  0  0  0  0  0  0  0  0  0
    2.3124   -5.3952    0.0000 C   0  0  0  0  0  0  0  0  0  0  0  0
    2.7133   -4.4949    0.0000 C   0  0  0  0  0  0  0  0  0  0  0  0
    2.4908   -7.0928    0.0000 F   0  0  0  0  0  0  0  0  0  0  0  0
    6.5229   -4.6055    0.0000 C   0  0  0  0  0  0  0  0  0  0  0  0
    7.4602   -4.3010    0.0000 C   0  0  0  0  0  0  0  0  0  0  0  0
    7.6651   -3.3370    0.0000 H   0  0  0  0  0  0  0  0  0  0  0  0
    8.1926   -4.9604    0.0000 C   0  0  0  0  0  0  0  0  0  0  0  0
    9.1299   -4.6559    0.0000 H   0  0  0  0  0  0  0  0  0  0  0  0
    7.9877   -5.9244    0.0000 C   0  0  0  0  0  0  0  0  0  0  0  0
    7.0504   -6.2289    0.0000 C   0  0  0  0  0  0  0  0  0  0  0  0
    6.3180   -5.5695    0.0000 C   0  0  0  0  0  0  0  0  0  0  0  0
    5.3808   -5.8741    0.0000 H   0  0  0  0  0  0  0  0  0  0  0  0
    6.8455   -7.1929    0.0000 H   0  0  0  0  0  0  0  0  0  0  0  0
    8.7201   -6.5838    0.0000 H   0  0  0  0  0  0  0  0  0  0  0  0
    6.0147   -1.8138    0.0000 C   0  0  0  0  0  0  0  0  0  0  0  0
    6.0147   -0.8283    0.0000 O   0  0  0  0  0  0  0  0  0  0  0  0
    6.8681   -2.3066    0.0000 N   0  0  0  0  0  0  0  0  0  0  0  0
    7.7216   -1.8138    0.0000 C   0  0  0  0  0  0  0  0  0  0  0  0
    8.5751   -2.3066    0.0000 C   0  0  0  0  0  0  0  0  0  0  0  0
    9.4286   -1.8138    0.0000 C   0  0  0  0  0  0  0  0  0  0  0  0
    9.4286   -0.8283    0.0000 C   0  0  0  0  0  0  0  0  0  0  0  0
    8.5751   -0.3356    0.0000 C   0  0  0  0  0  0  0  0  0  0  0  0
    7.7216   -0.8283    0.0000 C   0  0  0  0  0  0  0  0  0  0  0  0
    6.8681   -0.3356    0.0000 O   0  0  0  0  0  0  0  0  0  0  0  0
    6.8681    0.6500    0.0000 C   0  0  0  0  0  0  0  0  0  0  0  0
    6.0147    1.1427    0.0000 C   0  0  0  0  0  0  0  0  0  0  0  0
    6.0147    2.1282    0.0000 C   0  0  0  0  0  0  0  0  0  0  0  0
    5.1612    2.6210    0.0000 C   0  0  0  0  0  0  0  0  0  0  0  0
    4.3077    2.1282    0.0000 C   0  0  0  0  0  0  0  0  0  0  0  0
    4.3077    1.1427    0.0000 C   0  0  0  0  0  0  0  0  0  0  0  0
    5.1612    0.6500    0.0000 C   0  0  0  0  0  0  0  0  0  0  0  0
    0.2670   -1.6859    0.0000 O   0  0  0  0  0  0  0  0  0  0  0  0
   -0.3532   -0.9201    0.0000 C   0  0  0  0  0  0  0  0  0  0  0  0
   -0.0000   -0.0000    0.0000 O   0  0  0  0  0  0  0  0  0  0  0  0
   -1.2732   -0.5669    0.0000 C   0  0  0  0  0  0  0  0  0  0  0  0
   -1.1191   -1.5403    0.0000 C   0  0  0  0  0  0  0  0  0  0  0  0
  1  2  2  0  0  0  0
  2  3  1  0  0  0  0
  2  8  1  0  0  0  0
  3  4  1  0  0  0  0
  4  5  1  0  0  0  0
  4  6  1  0  0  0  0
  4  7  1  0  0  0  0
  8  9  1  0  0  0  0
  9 10  1  6  0  0  0
  9 61  1  0  0  0  0
  9 11  1  0  0  0  0
 11 12  1  0  0  0  0
 12 13  1  6  0  0  0
 12 14  1  0  0  0  0
 12 59  1  0  0  0  0
 14 15  1  0  0  0  0
 15 16  1  0  0  0  0
 16 23  1  0  0  0  0
 16 17  1  0  0  0  0
 17 18  1  0  0  0  0
 17 21  2  0  0  0  0
 18 19  1  0  0  0  0
 18 20  1  0  0  0  0
 21 22  1  0  0  0  0
 21 42  1  0  0  0  0
 22 23  2  0  0  0  0
 22 31  1  0  0  0  0
 23 24  1  0  0  0  0
 24 29  1  0  0  0  0
 24 25  2  0  0  0  0
 25 26  1  0  0  0  0
 26 27  2  0  0  0  0
 27 28  1  0  0  0  0
 27 30  1  0  0  0  0
 28 29  2  0  0  0  0
 31 38  1  0  0  0  0
 31 32  2  0  0  0  0
 32 33  1  0  0  0  0
 32 34  1  0  0  0  0
 34 35  1  0  0  0  0
 34 36  2  0  0  0  0
 36 37  1  0  0  0  0
 36 41  1  0  0  0  0
 37 38  2  0  0  0  0
 37 40  1  0  0  0  0
 38 39  1  0  0  0  0
 42 43  2  0  0  0  0
 42 44  1  0  0  0  0
 44 45  1  0  0  0  0
 45 50  1  0  0  0  0
 45 46  2  0  0  0  0
 46 47  1  0  0  0  0
 47 48  2  0  0  0  0
 48 49  1  0  0  0  0
 49 50  2  0  0  0  0
 50 51  1  0  0  0  0
 51 52  1  0  0  0  0
 52 53  1  0  0  0  0
 53 58  1  0  0  0  0
 53 54  2  0  0  0  0
 54 55  1  0  0  0  0
 55 56  2  0  0  0  0
 56 57  1  0  0  0  0
 57 58  2  0  0  0  0
 59 60  1  0  0  0  0
 60 61  1  0  0  0  0
 60 62  1  0  0  0  0
 60 63  1  0  0  0  0
M  ISO  5  33   2  35   2  39   2  40   2  41   2
M  END
>  <Supplier>
www.ambinter.com

>  <Ambinter_reference>
Amb17609270

>  <MW>
765.963

$$$$
Amb17609271
 OpenBabel08272101522D

 63 68  0  0  1  0  0  0  0  0999 V2000
    3.2262   -0.8520    0.0000 O   0  0  0  0  0  0  0  0  0  0  0  0
    2.3061   -0.4989    0.0000 C   0  0  0  0  0  0  0  0  0  0  0  0
    2.1520    0.4745    0.0000 O   0  0  0  0  0  0  0  0  0  0  0  0
    2.9178    1.0947    0.0000 C   0  0  0  0  0  0  0  0  0  0  0  0
    3.2710    2.0148    0.0000 C   0  0  0  0  0  0  0  0  0  0  0  0
    2.2976    1.8606    0.0000 C   0  0  0  0  0  0  0  0  0  0  0  0
    3.8379    0.7415    0.0000 C   0  0  0  0  0  0  0  0  0  0  0  0
    1.5403   -1.1191    0.0000 C   0  0  0  0  0  0  0  0  0  0  0  0
    0.6202   -0.7659    0.0000 C   0  0  1  0  0  0  0  0  0  0  0  0
    1.3861   -0.1457    0.0000 H   0  0  0  0  0  0  0  0  0  0  0  0
    0.2670   -1.6859    0.0000 C   0  0  0  0  0  0  0  0  0  0  0  0
   -0.7063   -1.8401    0.0000 C   0  0  1  0  0  0  0  0  0  0  0  0
   -1.6915   -1.8659    0.0000 H   0  0  0  0  0  0  0  0  0  0  0  0
   -0.3055   -2.7404    0.0000 C   0  0  0  0  0  0  0  0  0  0  0  0
   -0.8848   -3.5377    0.0000 C   0  0  0  0  0  0  0  0  0  0  0  0
   -0.4839   -4.4380    0.0000 N   0  0  0  0  0  0  0  0  0  0  0  0
    0.4800   -4.6429    0.0000 C   0  0  0  0  0  0  0  0  0  0  0  0
    1.2124   -3.9835    0.0000 C   0  0  0  0  0  0  0  0  0  0  0  0
    2.1497   -4.2880    0.0000 C   0  0  0  0  0  0  0  0  0  0  0  0
    1.0075   -3.0195    0.0000 C   0  0  0  0  0  0  0  0  0  0  0  0
    0.5831   -5.6230    0.0000 C   0  0  0  0  0  0  0  0  0  0  0  0
   -0.3173   -6.0239    0.0000 C   0  0  0  0  0  0  0  0  0  0  0  0
   -0.9767   -5.2915    0.0000 C   0  0  0  0  0  0  0  0  0  0  0  0
   -1.9568   -5.3945    0.0000 C   0  0  0  0  0  0  0  0  0  0  0  0
   -2.3576   -6.2948    0.0000 C   0  0  0  0  0  0  0  0  0  0  0  0
   -3.3377   -6.3978    0.0000 C   0  0  0  0  0  0  0  0  0  0  0  0
   -3.9170   -5.6005    0.0000 C   0  0  0  0  0  0  0  0  0  0  0  0
   -3.5162   -4.7002    0.0000 C   0  0  0  0  0  0  0  0  0  0  0  0
   -2.5361   -4.5972    0.0000 C   0  0  0  0  0  0  0  0  0  0  0  0
   -4.8971   -5.7035    0.0000 F   0  0  0  0  0  0  0  0  0  0  0  0
   -0.7270   -7.9518    0.0000 C   0  0  0  0  0  0  0  0  0  0  0  0
    0.0053   -8.6112    0.0000 C   0  0  0  0  0  0  0  0  0  0  0  0
    0.9426   -8.3067    0.0000 H   0  0  0  0  0  0  0  0  0  0  0  0
   -0.1996   -9.5752    0.0000 C   0  0  0  0  0  0  0  0  0  0  0  0
    0.5328  -10.2346    0.0000 H   0  0  0  0  0  0  0  0  0  0  0  0
   -1.1368   -9.8797    0.0000 C   0  0  0  0  0  0  0  0  0  0  0  0
   -1.8692   -9.2203    0.0000 C   0  0  0  0  0  0  0  0  0  0  0  0
   -1.6643   -8.2563    0.0000 C   0  0  0  0  0  0  0  0  0  0  0  0
   -2.3967   -7.5969    0.0000 H   0  0  0  0  0  0  0  0  0  0  0  0
   -2.8065   -9.5248    0.0000 H   0  0  0  0  0  0  0  0  0  0  0  0
   -1.3417  -10.8437    0.0000 H   0  0  0  0  0  0  0  0  0  0  0  0
    1.4365   -6.1158    0.0000 C   0  0  0  0  0  0  0  0  0  0  0  0
    1.4365   -7.1013    0.0000 O   0  0  0  0  0  0  0  0  0  0  0  0
    2.2900   -5.6230    0.0000 N   0  0  0  0  0  0  0  0  0  0  0  0
    3.1435   -6.1158    0.0000 C   0  0  0  0  0  0  0  0  0  0  0  0
    3.9970   -5.6230    0.0000 C   0  0  0  0  0  0  0  0  0  0  0  0
    4.8504   -6.1158    0.0000 C   0  0  0  0  0  0  0  0  0  0  0  0
    4.8504   -7.1013    0.0000 C   0  0  0  0  0  0  0  0  0  0  0  0
    3.9970   -7.5940    0.0000 C   0  0  0  0  0  0  0  0  0  0  0  0
    3.1435   -7.1013    0.0000 C   0  0  0  0  0  0  0  0  0  0  0  0
    5.7039   -7.5940    0.0000 O   0  0  0  0  0  0  0  0  0  0  0  0
    6.5574   -7.1013    0.0000 C   0  0  0  0  0  0  0  0  0  0  0  0
    7.4108   -7.5940    0.0000 C   0  0  0  0  0  0  0  0  0  0  0  0
    8.2643   -7.1013    0.0000 C   0  0  0  0  0  0  0  0  0  0  0  0
    9.1178   -7.5940    0.0000 C   0  0  0  0  0  0  0  0  0  0  0  0
    9.1178   -8.5795    0.0000 C   0  0  0  0  0  0  0  0  0  0  0  0
    8.2643   -9.0723    0.0000 C   0  0  0  0  0  0  0  0  0  0  0  0
    7.4108   -8.5795    0.0000 C   0  0  0  0  0  0  0  0  0  0  0  0
   -1.3265   -1.0742    0.0000 O   0  0  0  0  0  0  0  0  0  0  0  0
   -0.9734   -0.1542    0.0000 C   0  0  0  0  0  0  0  0  0  0  0  0
    0.0000    0.0000    0.0000 O   0  0  0  0  0  0  0  0  0  0  0  0
   -1.1275    0.8192    0.0000 C   0  0  0  0  0  0  0  0  0  0  0  0
   -1.8934    0.1990    0.0000 C   0  0  0  0  0  0  0  0  0  0  0  0
  1  2  2  0  0  0  0
  2  3  1  0  0  0  0
  2  8  1  0  0  0  0
  3  4  1  0  0  0  0
  4  5  1  0  0  0  0
  4  6  1  0  0  0  0
  4  7  1  0  0  0  0
  8  9  1  0  0  0  0
  9 10  1  6  0  0  0
  9 61  1  0  0  0  0
  9 11  1  0  0  0  0
 11 12  1  0  0  0  0
 12 13  1  6  0  0  0
 12 14  1  0  0  0  0
 12 59  1  0  0  0  0
 14 15  1  0  0  0  0
 15 16  1  0  0  0  0
 16 23  1  0  0  0  0
 16 17  1  0  0  0  0
 17 18  1  0  0  0  0
 17 21  2  0  0  0  0
 18 19  1  0  0  0  0
 18 20  1  0  0  0  0
 21 22  1  0  0  0  0
 21 42  1  0  0  0  0
 22 23  2  0  0  0  0
 22 31  1  0  0  0  0
 23 24  1  0  0  0  0
 24 29  1  0  0  0  0
 24 25  2  0  0  0  0
 25 26  1  0  0  0  0
 26 27  2  0  0  0  0
 27 28  1  0  0  0  0
 27 30  1  0  0  0  0
 28 29  2  0  0  0  0
 31 38  1  0  0  0  0
 31 32  2  0  0  0  0
 32 33  1  0  0  0  0
 32 34  1  0  0  0  0
 34 35  1  0  0  0  0
 34 36  2  0  0  0  0
 36 37  1  0  0  0  0
 36 41  1  0  0  0  0
 37 38  2  0  0  0  0
 37 40  1  0  0  0  0
 38 39  1  0  0  0  0
 42 43  2  0  0  0  0
 42 44  1  0  0  0  0
 44 45  1  0  0  0  0
 45 50  1  0  0  0  0
 45 46  2  0  0  0  0
 46 47  1  0  0  0  0
 47 48  2  0  0  0  0
 48 49  1  0  0  0  0
 48 51  1  0  0  0  0
 49 50  2  0  0  0  0
 51 52  1  0  0  0  0
 52 53  1  0  0  0  0
 53 58  1  0  0  0  0
 53 54  2  0  0  0  0
 54 55  1  0  0  0  0
 55 56  2  0  0  0  0
 56 57  1  0  0  0  0
 57 58  2  0  0  0  0
 59 60  1  0  0  0  0
 60 61  1  0  0  0  0
 60 62  1  0  0  0  0
 60 63  1  0  0  0  0
M  ISO  5  33   2  35   2  39   2  40   2  41   2
M  END
>  <Supplier>
www.ambinter.com

>  <Ambinter_reference>
Amb17609271

>  <MW>
765.963

$$$$
Amb17611650
 OpenBabel08272101522D

 49 53  0  0  1  0  0  0  0  0999 V2000
   -2.3855   -2.4028    0.0000 O   0  0  0  0  0  0  0  0  0  0  0  0
   -1.6084   -1.7734    0.0000 C   0  0  0  0  0  0  0  0  0  0  0  0
   -0.6748   -2.1318    0.0000 O   0  0  0  0  0  0  0  0  0  0  0  0
   -0.5184   -3.1195    0.0000 C   0  0  0  0  0  0  0  0  0  0  0  0
    0.1109   -3.8966    0.0000 C   0  0  0  0  0  0  0  0  0  0  0  0
    0.4693   -2.9631    0.0000 C   0  0  0  0  0  0  0  0  0  0  0  0
   -1.2955   -3.7488    0.0000 C   0  0  0  0  0  0  0  0  0  0  0  0
   -1.7648   -0.7858    0.0000 C   0  0  0  0  0  0  0  0  0  0  0  0
   -0.9877   -0.1564    0.0000 C   0  0  1  0  0  0  0  0  0  0  0  0
   -0.8313   -1.1441    0.0000 H   0  0  0  0  0  0  0  0  0  0  0  0
   -1.6170    0.6207    0.0000 C   0  0  0  0  0  0  0  0  0  0  0  0
   -1.2586    1.5543    0.0000 C   0  0  1  0  0  0  0  0  0  0  0  0
   -0.7815    2.4331    0.0000 H   0  0  0  0  0  0  0  0  0  0  0  0
   -2.2532    1.6588    0.0000 C   0  0  0  0  0  0  0  0  0  0  0  0
   -2.6599    2.5724    0.0000 C   0  0  0  0  0  0  0  0  0  0  0  0
   -3.6544    2.6769    0.0000 N   0  0  0  0  0  0  0  0  0  0  0  0
   -4.3236    1.9337    0.0000 C   0  0  0  0  0  0  0  0  0  0  0  0
   -4.1156    0.9556    0.0000 C   0  0  0  0  0  0  0  0  0  0  0  0
   -4.8588    0.2865    0.0000 C   0  0  0  0  0  0  0  0  0  0  0  0
   -3.1646    0.6466    0.0000 C   0  0  0  0  0  0  0  0  0  0  0  0
   -5.2371    2.3405    0.0000 C   0  0  0  0  0  0  0  0  0  0  0  0
   -5.1326    3.3350    0.0000 C   0  0  0  0  0  0  0  0  0  0  0  0
   -4.1544    3.5429    0.0000 C   0  0  0  0  0  0  0  0  0  0  0  0
   -3.7477    4.4565    0.0000 C   0  0  0  0  0  0  0  0  0  0  0  0
   -4.3355    5.2655    0.0000 C   0  0  0  0  0  0  0  0  0  0  0  0
   -3.9287    6.1790    0.0000 C   0  0  0  0  0  0  0  0  0  0  0  0
   -2.9342    6.2836    0.0000 C   0  0  0  0  0  0  0  0  0  0  0  0
   -2.3464    5.4745    0.0000 C   0  0  0  0  0  0  0  0  0  0  0  0
   -2.7532    4.5610    0.0000 C   0  0  0  0  0  0  0  0  0  0  0  0
   -5.8757    4.0041    0.0000 C   0  0  0  0  0  0  0  0  0  0  0  0
   -6.8268    3.6951    0.0000 C   0  0  0  0  0  0  0  0  0  0  0  0
   -7.5699    4.3643    0.0000 C   0  0  0  0  0  0  0  0  0  0  0  0
   -7.3620    5.3424    0.0000 C   0  0  0  0  0  0  0  0  0  0  0  0
   -6.4109    5.6514    0.0000 C   0  0  0  0  0  0  0  0  0  0  0  0
   -5.6678    4.9823    0.0000 C   0  0  0  0  0  0  0  0  0  0  0  0
   -6.1031    1.8405    0.0000 C   0  0  0  0  0  0  0  0  0  0  0  0
   -6.9691    2.3405    0.0000 O   0  0  0  0  0  0  0  0  0  0  0  0
   -6.1031    0.8405    0.0000 N   0  0  0  0  0  0  0  0  0  0  0  0
   -6.9691    0.3405    0.0000 C   0  0  0  0  0  0  0  0  0  0  0  0
   -6.9691   -0.6595    0.0000 C   0  0  0  0  0  0  0  0  0  0  0  0
   -7.8352   -1.1595    0.0000 C   0  0  0  0  0  0  0  0  0  0  0  0
   -8.7012   -0.6595    0.0000 C   0  0  0  0  0  0  0  0  0  0  0  0
   -8.7012    0.3405    0.0000 C   0  0  0  0  0  0  0  0  0  0  0  0
   -7.8352    0.8405    0.0000 C   0  0  0  0  0  0  0  0  0  0  0  0
   -0.2710    1.7107    0.0000 O   0  0  0  0  0  0  0  0  0  0  0  0
    0.3584    0.9336    0.0000 C   0  0  0  0  0  0  0  0  0  0  0  0
    0.0000   -0.0000    0.0000 O   0  0  0  0  0  0  0  0  0  0  0  0
    1.2919    0.5752    0.0000 C   0  0  0  0  0  0  0  0  0  0  0  0
    1.1355    1.5629    0.0000 C   0  0  0  0  0  0  0  0  0  0  0  0
  1  2  2  0  0  0  0
  2  3  1  0  0  0  0
  2  8  1  0  0  0  0
  3  4  1  0  0  0  0
  4  5  1  0  0  0  0
  4  6  1  0  0  0  0
  4  7  1  0  0  0  0
  8  9  1  0  0  0  0
  9 10  1  6  0  0  0
  9 47  1  0  0  0  0
  9 11  1  0  0  0  0
 11 12  1  0  0  0  0
 12 13  1  6  0  0  0
 12 14  1  0  0  0  0
 12 45  1  0  0  0  0
 14 15  1  0  0  0  0
 15 16  1  0  0  0  0
 16 23  1  0  0  0  0
 16 17  1  0  0  0  0
 17 18  1  0  0  0  0
 17 21  2  0  0  0  0
 18 19  1  0  0  0  0
 18 20  1  0  0  0  0
 21 22  1  0  0  0  0
 21 36  1  0  0  0  0
 22 23  2  0  0  0  0
 22 30  1  0  0  0  0
 23 24  1  0  0  0  0
 24 29  1  0  0  0  0
 24 25  2  0  0  0  0
 25 26  1  0  0  0  0
 26 27  2  0  0  0  0
 27 28  1  0  0  0  0
 28 29  2  0  0  0  0
 30 35  1  0  0  0  0
 30 31  2  0  0  0  0
 31 32  1  0  0  0  0
 32 33  2  0  0  0  0
 33 34  1  0  0  0  0
 34 35  2  0  0  0  0
 36 37  2  0  0  0  0
 36 38  1  0  0  0  0
 38 39  1  0  0  0  0
 39 44  1  0  0  0  0
 39 40  2  0  0  0  0
 40 41  1  0  0  0  0
 41 42  2  0  0  0  0
 42 43  1  0  0  0  0
 43 44  2  0  0  0  0
 45 46  1  0  0  0  0
 46 47  1  0  0  0  0
 46 48  1  0  0  0  0
 46 49  1  0  0  0  0
M  END
>  <Supplier>
www.ambinter.com

>  <Ambinter_reference>
Amb17611650

>  <MW>
636.82

$$$$
Amb17611651
 OpenBabel08272101522D

 43 45  0  0  1  0  0  0  0  0999 V2000
    6.3162   -8.1582    0.0000 O   0  0  0  0  0  0  0  0  0  0  0  0
    7.1252   -7.5704    0.0000 C   0  0  1  0  0  0  0  0  0  0  0  0
    7.7130   -8.3794    0.0000 H   0  0  0  0  0  0  0  0  0  0  0  0
    7.9342   -6.9826    0.0000 C   0  0  0  0  0  0  0  0  0  0  0  0
    8.8478   -7.3894    0.0000 C   0  0  2  0  0  0  0  0  0  0  0  0
    9.4356   -8.1984    0.0000 H   0  0  0  0  0  0  0  0  0  0  0  0
    9.6568   -6.8016    0.0000 C   0  0  0  0  0  0  0  0  0  0  0  0
   10.5703   -7.2083    0.0000 C   0  0  0  0  0  0  0  0  0  0  0  0
   11.3794   -6.6205    0.0000 O   0  0  0  0  0  0  0  0  0  0  0  0
   10.6749   -8.2028    0.0000 O   0  5  0  0  0  0  0  0  0  0  0  0
    8.4410   -8.3029    0.0000 O   0  0  0  0  0  0  0  0  0  0  0  0
    6.5374   -6.7614    0.0000 C   0  0  0  0  0  0  0  0  0  0  0  0
    6.9442   -5.8479    0.0000 C   0  0  0  0  0  0  0  0  0  0  0  0
    6.3564   -5.0388    0.0000 N   0  0  0  0  0  0  0  0  0  0  0  0
    5.3564   -5.0388    0.0000 C   0  0  0  0  0  0  0  0  0  0  0  0
    4.7686   -5.8479    0.0000 C   0  0  0  0  0  0  0  0  0  0  0  0
    3.7741   -5.7433    0.0000 C   0  0  0  0  0  0  0  0  0  0  0  0
    5.1753   -6.7614    0.0000 C   0  0  0  0  0  0  0  0  0  0  0  0
    5.0474   -4.0878    0.0000 C   0  0  0  0  0  0  0  0  0  0  0  0
    5.8564   -3.5000    0.0000 C   0  0  0  0  0  0  0  0  0  0  0  0
    6.6654   -4.0878    0.0000 C   0  0  0  0  0  0  0  0  0  0  0  0
    7.6165   -3.7788    0.0000 C   0  0  0  0  0  0  0  0  0  0  0  0
    7.8244   -2.8006    0.0000 C   0  0  0  0  0  0  0  0  0  0  0  0
    8.7754   -2.4916    0.0000 C   0  0  0  0  0  0  0  0  0  0  0  0
    9.5186   -3.1607    0.0000 C   0  0  0  0  0  0  0  0  0  0  0  0
    9.3107   -4.1389    0.0000 C   0  0  0  0  0  0  0  0  0  0  0  0
    8.3596   -4.4479    0.0000 C   0  0  0  0  0  0  0  0  0  0  0  0
    5.8564   -2.5000    0.0000 C   0  0  0  0  0  0  0  0  0  0  0  0
    4.9904   -2.0000    0.0000 C   0  0  0  0  0  0  0  0  0  0  0  0
    4.9904   -1.0000    0.0000 C   0  0  0  0  0  0  0  0  0  0  0  0
    5.8564   -0.5000    0.0000 C   0  0  0  0  0  0  0  0  0  0  0  0
    6.7224   -1.0000    0.0000 C   0  0  0  0  0  0  0  0  0  0  0  0
    6.7224   -2.0000    0.0000 C   0  0  0  0  0  0  0  0  0  0  0  0
    4.0963   -3.7788    0.0000 C   0  0  0  0  0  0  0  0  0  0  0  0
    3.8884   -2.8006    0.0000 O   0  0  0  0  0  0  0  0  0  0  0  0
    3.3532   -4.4479    0.0000 N   0  0  0  0  0  0  0  0  0  0  0  0
    2.4021   -4.1389    0.0000 C   0  0  0  0  0  0  0  0  0  0  0  0
    1.6590   -4.8080    0.0000 C   0  0  0  0  0  0  0  0  0  0  0  0
    0.7079   -4.4990    0.0000 C   0  0  0  0  0  0  0  0  0  0  0  0
    0.5000   -3.5208    0.0000 C   0  0  0  0  0  0  0  0  0  0  0  0
    1.2431   -2.8517    0.0000 C   0  0  0  0  0  0  0  0  0  0  0  0
    2.1942   -3.1607    0.0000 C   0  0  0  0  0  0  0  0  0  0  0  0
   -3.6186   -0.5946    0.0000 Na  0  3  0  0  0 15  0  0  0  0  0  0
  1  2  1  0  0  0  0
  2  3  1  1  0  0  0
  2  4  1  0  0  0  0
  2 12  1  0  0  0  0
  4  5  1  0  0  0  0
  5  6  1  1  0  0  0
  5  7  1  0  0  0  0
  5 11  1  0  0  0  0
  7  8  1  0  0  0  0
  8  9  2  0  0  0  0
  8 10  1  0  0  0  0
 12 13  1  0  0  0  0
 13 14  1  0  0  0  0
 14 21  1  0  0  0  0
 14 15  1  0  0  0  0
 15 16  1  0  0  0  0
 15 19  2  0  0  0  0
 16 17  1  0  0  0  0
 16 18  1  0  0  0  0
 19 20  1  0  0  0  0
 19 34  1  0  0  0  0
 20 21  2  0  0  0  0
 20 28  1  0  0  0  0
 21 22  1  0  0  0  0
 22 27  1  0  0  0  0
 22 23  2  0  0  0  0
 23 24  1  0  0  0  0
 24 25  2  0  0  0  0
 25 26  1  0  0  0  0
 26 27  2  0  0  0  0
 28 33  1  0  0  0  0
 28 29  2  0  0  0  0
 29 30  1  0  0  0  0
 30 31  2  0  0  0  0
 31 32  1  0  0  0  0
 32 33  2  0  0  0  0
 34 35  2  0  0  0  0
 34 36  1  0  0  0  0
 36 37  1  0  0  0  0
 37 42  1  0  0  0  0
 37 38  2  0  0  0  0
 38 39  1  0  0  0  0
 39 40  2  0  0  0  0
 40 41  1  0  0  0  0
 41 42  2  0  0  0  0
M  CHG  2  10  -1  43   1
M  END
>  <Supplier>
www.ambinter.com

>  <Ambinter_reference>
Amb17611651

>  <MW>
562.631

$$$$
Amb17614451
 OpenBabel08272101522D

 56 60  0  0  1  0  0  0  0  0999 V2000
    1.1823   -3.1134    0.0000 O   0  0  0  0  0  0  0  0  0  0  0  0
    0.7358   -2.2370    0.0000 C   0  0  0  0  0  0  0  0  0  0  0  0
   -0.2465   -2.1856    0.0000 O   0  0  0  0  0  0  0  0  0  0  0  0
   -0.7822   -3.0105    0.0000 C   0  0  0  0  0  0  0  0  0  0  0  0
   -1.6586   -3.4570    0.0000 C   0  0  0  0  0  0  0  0  0  0  0  0
   -1.6071   -2.4748    0.0000 C   0  0  0  0  0  0  0  0  0  0  0  0
   -0.3357   -3.8869    0.0000 C   0  0  0  0  0  0  0  0  0  0  0  0
    1.2715   -1.4121    0.0000 C   0  0  0  0  0  0  0  0  0  0  0  0
    0.8249   -0.5357    0.0000 C   0  0  1  0  0  0  0  0  0  0  0  0
    0.2892   -1.3606    0.0000 H   0  0  0  0  0  0  0  0  0  0  0  0
    1.7013   -0.0892    0.0000 C   0  0  0  0  0  0  0  0  0  0  0  0
    1.7528    0.8931    0.0000 C   0  0  1  0  0  0  0  0  0  0  0  0
    1.6756    1.8737    0.0000 H   0  0  0  0  0  0  0  0  0  0  0  0
    2.6883    0.5891    0.0000 C   0  0  0  0  0  0  0  0  0  0  0  0
    3.4192    1.2473    0.0000 C   0  0  0  0  0  0  0  0  0  0  0  0
    4.3547    0.9434    0.0000 N   0  0  0  0  0  0  0  0  0  0  0  0
    4.6586    0.0079    0.0000 C   0  0  0  0  0  0  0  0  0  0  0  0
    4.0805   -0.7879    0.0000 C   0  0  0  0  0  0  0  0  0  0  0  0
    4.4806   -1.6864    0.0000 C   0  0  0  0  0  0  0  0  0  0  0  0
    3.1023   -0.6850    0.0000 C   0  0  0  0  0  0  0  0  0  0  0  0
    5.6423    0.0079    0.0000 C   0  0  0  0  0  0  0  0  0  0  0  0
    5.9462    0.9434    0.0000 C   0  0  0  0  0  0  0  0  0  0  0  0
    5.1504    1.5215    0.0000 C   0  0  0  0  0  0  0  0  0  0  0  0
    5.1504    2.5051    0.0000 C   0  0  0  0  0  0  0  0  0  0  0  0
    6.0023    2.9969    0.0000 C   0  0  0  0  0  0  0  0  0  0  0  0
    6.0023    3.9805    0.0000 C   0  0  0  0  0  0  0  0  0  0  0  0
    5.1504    4.4723    0.0000 C   0  0  0  0  0  0  0  0  0  0  0  0
    4.2986    3.9805    0.0000 C   0  0  0  0  0  0  0  0  0  0  0  0
    4.2986    2.9969    0.0000 C   0  0  0  0  0  0  0  0  0  0  0  0
    5.1504    5.4559    0.0000 F   0  0  0  0  0  0  0  0  0  0  0  0
    7.8171    1.5513    0.0000 C   0  0  0  0  0  0  0  0  0  0  0  0
    8.5481    0.8931    0.0000 C   0  0  0  0  0  0  0  0  0  0  0  0
    8.3436   -0.0690    0.0000 H   0  0  0  0  0  0  0  0  0  0  0  0
    9.4836    1.1970    0.0000 C   0  0  0  0  0  0  0  0  0  0  0  0
   10.2145    0.5389    0.0000 H   0  0  0  0  0  0  0  0  0  0  0  0
    9.6881    2.1592    0.0000 C   0  0  0  0  0  0  0  0  0  0  0  0
    8.9571    2.8173    0.0000 C   0  0  0  0  0  0  0  0  0  0  0  0
    8.0216    2.5134    0.0000 C   0  0  0  0  0  0  0  0  0  0  0  0
    7.2907    3.1715    0.0000 H   0  0  0  0  0  0  0  0  0  0  0  0
    9.1616    3.7794    0.0000 H   0  0  0  0  0  0  0  0  0  0  0  0
   10.6235    2.4631    0.0000 H   0  0  0  0  0  0  0  0  0  0  0  0
    6.2204   -0.7879    0.0000 C   0  0  0  0  0  0  0  0  0  0  0  0
    7.1986   -0.6850    0.0000 O   0  0  0  0  0  0  0  0  0  0  0  0
    5.8203   -1.6864    0.0000 N   0  0  0  0  0  0  0  0  0  0  0  0
    6.3985   -2.4822    0.0000 C   0  0  0  0  0  0  0  0  0  0  0  0
    5.9984   -3.3808    0.0000 C   0  0  0  0  0  0  0  0  0  0  0  0
    6.5766   -4.1765    0.0000 C   0  0  0  0  0  0  0  0  0  0  0  0
    7.5548   -4.0737    0.0000 C   0  0  0  0  0  0  0  0  0  0  0  0
    7.9548   -3.1751    0.0000 C   0  0  0  0  0  0  0  0  0  0  0  0
    7.3767   -2.3794    0.0000 C   0  0  0  0  0  0  0  0  0  0  0  0
    7.7768   -1.4808    0.0000 O   0  0  0  0  0  0  0  0  0  0  0  0
    0.9279    1.4288    0.0000 O   0  0  0  0  0  0  0  0  0  0  0  0
    0.0515    0.9823    0.0000 C   0  0  0  0  0  0  0  0  0  0  0  0
    0.0000   -0.0000    0.0000 O   0  0  0  0  0  0  0  0  0  0  0  0
   -0.9308    1.0337    0.0000 C   0  0  0  0  0  0  0  0  0  0  0  0
   -0.3951    1.8587    0.0000 C   0  0  0  0  0  0  0  0  0  0  0  0
  1  2  2  0  0  0  0
  2  3  1  0  0  0  0
  2  8  1  0  0  0  0
  3  4  1  0  0  0  0
  4  5  1  0  0  0  0
  4  6  1  0  0  0  0
  4  7  1  0  0  0  0
  8  9  1  0  0  0  0
  9 10  1  1  0  0  0
  9 54  1  0  0  0  0
  9 11  1  0  0  0  0
 11 12  1  0  0  0  0
 12 13  1  1  0  0  0
 12 14  1  0  0  0  0
 12 52  1  0  0  0  0
 14 15  1  0  0  0  0
 15 16  1  0  0  0  0
 16 23  1  0  0  0  0
 16 17  1  0  0  0  0
 17 18  1  0  0  0  0
 17 21  2  0  0  0  0
 18 19  1  0  0  0  0
 18 20  1  0  0  0  0
 21 22  1  0  0  0  0
 21 42  1  0  0  0  0
 22 23  2  0  0  0  0
 22 31  1  0  0  0  0
 23 24  1  0  0  0  0
 24 29  1  0  0  0  0
 24 25  2  0  0  0  0
 25 26  1  0  0  0  0
 26 27  2  0  0  0  0
 27 28  1  0  0  0  0
 27 30  1  0  0  0  0
 28 29  2  0  0  0  0
 31 38  1  0  0  0  0
 31 32  2  0  0  0  0
 32 33  1  0  0  0  0
 32 34  1  0  0  0  0
 34 35  1  0  0  0  0
 34 36  2  0  0  0  0
 36 37  1  0  0  0  0
 36 41  1  0  0  0  0
 37 38  2  0  0  0  0
 37 40  1  0  0  0  0
 38 39  1  0  0  0  0
 42 43  2  0  0  0  0
 42 44  1  0  0  0  0
 44 45  1  0  0  0  0
 45 50  1  0  0  0  0
 45 46  2  0  0  0  0
 46 47  1  0  0  0  0
 47 48  2  0  0  0  0
 48 49  1  0  0  0  0
 49 50  2  0  0  0  0
 50 51  1  0  0  0  0
 52 53  1  0  0  0  0
 53 54  1  0  0  0  0
 53 55  1  0  0  0  0
 53 56  1  0  0  0  0
M  ISO  5  33   2  35   2  39   2  40   2  41   2
M  END
>  <Supplier>
www.ambinter.com

>  <Ambinter_reference>
Amb17614451

>  <MW>
675.84

$$$$
Amb17614452
 OpenBabel08272101522D

 56 60  0  0  1  0  0  0  0  0999 V2000
   -1.1823   -3.1134    0.0000 O   0  0  0  0  0  0  0  0  0  0  0  0
   -0.7358   -2.2370    0.0000 C   0  0  0  0  0  0  0  0  0  0  0  0
    0.2465   -2.1856    0.0000 O   0  0  0  0  0  0  0  0  0  0  0  0
    0.7822   -3.0105    0.0000 C   0  0  0  0  0  0  0  0  0  0  0  0
    1.6586   -3.4570    0.0000 C   0  0  0  0  0  0  0  0  0  0  0  0
    1.6071   -2.4748    0.0000 C   0  0  0  0  0  0  0  0  0  0  0  0
    0.3357   -3.8869    0.0000 C   0  0  0  0  0  0  0  0  0  0  0  0
   -1.2715   -1.4121    0.0000 C   0  0  0  0  0  0  0  0  0  0  0  0
   -0.8249   -0.5357    0.0000 C   0  0  1  0  0  0  0  0  0  0  0  0
   -0.2892   -1.3606    0.0000 H   0  0  0  0  0  0  0  0  0  0  0  0
   -1.7013   -0.0892    0.0000 C   0  0  0  0  0  0  0  0  0  0  0  0
   -1.7528    0.8931    0.0000 C   0  0  1  0  0  0  0  0  0  0  0  0
   -1.6756    1.8737    0.0000 H   0  0  0  0  0  0  0  0  0  0  0  0
   -2.6883    0.5891    0.0000 C   0  0  0  0  0  0  0  0  0  0  0  0
   -3.4192    1.2473    0.0000 C   0  0  0  0  0  0  0  0  0  0  0  0
   -4.3547    0.9434    0.0000 N   0  0  0  0  0  0  0  0  0  0  0  0
   -4.6586    0.0079    0.0000 C   0  0  0  0  0  0  0  0  0  0  0  0
   -4.0805   -0.7879    0.0000 C   0  0  0  0  0  0  0  0  0  0  0  0
   -4.4806   -1.6864    0.0000 C   0  0  0  0  0  0  0  0  0  0  0  0
   -3.1023   -0.6850    0.0000 C   0  0  0  0  0  0  0  0  0  0  0  0
   -5.6423    0.0079    0.0000 C   0  0  0  0  0  0  0  0  0  0  0  0
   -5.9462    0.9434    0.0000 C   0  0  0  0  0  0  0  0  0  0  0  0
   -5.1504    1.5215    0.0000 C   0  0  0  0  0  0  0  0  0  0  0  0
   -5.1504    2.5051    0.0000 C   0  0  0  0  0  0  0  0  0  0  0  0
   -6.0023    2.9969    0.0000 C   0  0  0  0  0  0  0  0  0  0  0  0
   -6.0023    3.9805    0.0000 C   0  0  0  0  0  0  0  0  0  0  0  0
   -5.1504    4.4723    0.0000 C   0  0  0  0  0  0  0  0  0  0  0  0
   -4.2986    3.9805    0.0000 C   0  0  0  0  0  0  0  0  0  0  0  0
   -4.2986    2.9969    0.0000 C   0  0  0  0  0  0  0  0  0  0  0  0
   -5.1504    5.4559    0.0000 F   0  0  0  0  0  0  0  0  0  0  0  0
   -7.8171    1.5513    0.0000 C   0  0  0  0  0  0  0  0  0  0  0  0
   -8.5481    0.8931    0.0000 C   0  0  0  0  0  0  0  0  0  0  0  0
   -8.3436   -0.0690    0.0000 H   0  0  0  0  0  0  0  0  0  0  0  0
   -9.4836    1.1970    0.0000 C   0  0  0  0  0  0  0  0  0  0  0  0
  -10.2145    0.5389    0.0000 H   0  0  0  0  0  0  0  0  0  0  0  0
   -9.6881    2.1592    0.0000 C   0  0  0  0  0  0  0  0  0  0  0  0
   -8.9571    2.8173    0.0000 C   0  0  0  0  0  0  0  0  0  0  0  0
   -8.0216    2.5134    0.0000 C   0  0  0  0  0  0  0  0  0  0  0  0
   -7.2907    3.1715    0.0000 H   0  0  0  0  0  0  0  0  0  0  0  0
   -9.1616    3.7794    0.0000 H   0  0  0  0  0  0  0  0  0  0  0  0
  -10.6235    2.4631    0.0000 H   0  0  0  0  0  0  0  0  0  0  0  0
   -6.2204   -0.7879    0.0000 C   0  0  0  0  0  0  0  0  0  0  0  0
   -7.1986   -0.6850    0.0000 O   0  0  0  0  0  0  0  0  0  0  0  0
   -5.8203   -1.6864    0.0000 N   0  0  0  0  0  0  0  0  0  0  0  0
   -6.3985   -2.4822    0.0000 C   0  0  0  0  0  0  0  0  0  0  0  0
   -5.9984   -3.3808    0.0000 C   0  0  0  0  0  0  0  0  0  0  0  0
   -6.5766   -4.1765    0.0000 C   0  0  0  0  0  0  0  0  0  0  0  0
   -7.5548   -4.0737    0.0000 C   0  0  0  0  0  0  0  0  0  0  0  0
   -7.9548   -3.1751    0.0000 C   0  0  0  0  0  0  0  0  0  0  0  0
   -7.3767   -2.3794    0.0000 C   0  0  0  0  0  0  0  0  0  0  0  0
   -8.1329   -4.8695    0.0000 O   0  0  0  0  0  0  0  0  0  0  0  0
   -0.9279    1.4288    0.0000 O   0  0  0  0  0  0  0  0  0  0  0  0
   -0.0515    0.9823    0.0000 C   0  0  0  0  0  0  0  0  0  0  0  0
    0.0000   -0.0000    0.0000 O   0  0  0  0  0  0  0  0  0  0  0  0
    0.9308    1.0337    0.0000 C   0  0  0  0  0  0  0  0  0  0  0  0
    0.3951    1.8587    0.0000 C   0  0  0  0  0  0  0  0  0  0  0  0
  1  2  2  0  0  0  0
  2  3  1  0  0  0  0
  2  8  1  0  0  0  0
  3  4  1  0  0  0  0
  4  5  1  0  0  0  0
  4  6  1  0  0  0  0
  4  7  1  0  0  0  0
  8  9  1  0  0  0  0
  9 10  1  6  0  0  0
  9 54  1  0  0  0  0
  9 11  1  0  0  0  0
 11 12  1  0  0  0  0
 12 13  1  6  0  0  0
 12 14  1  0  0  0  0
 12 52  1  0  0  0  0
 14 15  1  0  0  0  0
 15 16  1  0  0  0  0
 16 23  1  0  0  0  0
 16 17  1  0  0  0  0
 17 18  1  0  0  0  0
 17 21  2  0  0  0  0
 18 19  1  0  0  0  0
 18 20  1  0  0  0  0
 21 22  1  0  0  0  0
 21 42  1  0  0  0  0
 22 23  2  0  0  0  0
 22 31  1  0  0  0  0
 23 24  1  0  0  0  0
 24 29  1  0  0  0  0
 24 25  2  0  0  0  0
 25 26  1  0  0  0  0
 26 27  2  0  0  0  0
 27 28  1  0  0  0  0
 27 30  1  0  0  0  0
 28 29  2  0  0  0  0
 31 38  1  0  0  0  0
 31 32  2  0  0  0  0
 32 33  1  0  0  0  0
 32 34  1  0  0  0  0
 34 35  1  0  0  0  0
 34 36  2  0  0  0  0
 36 37  1  0  0  0  0
 36 41  1  0  0  0  0
 37 38  2  0  0  0  0
 37 40  1  0  0  0  0
 38 39  1  0  0  0  0
 42 43  2  0  0  0  0
 42 44  1  0  0  0  0
 44 45  1  0  0  0  0
 45 50  1  0  0  0  0
 45 46  2  0  0  0  0
 46 47  1  0  0  0  0
 47 48  2  0  0  0  0
 48 49  1  0  0  0  0
 48 51  1  0  0  0  0
 49 50  2  0  0  0  0
 52 53  1  0  0  0  0
 53 54  1  0  0  0  0
 53 55  1  0  0  0  0
 53 56  1  0  0  0  0
M  ISO  5  33   2  35   2  39   2  40   2  41   2
M  END
>  <Supplier>
www.ambinter.com

>  <Ambinter_reference>
Amb17614452

>  <MW>
675.84

$$$$
Amb17615141
 OpenBabel08272101522D

 56 60  0  0  1  0  0  0  0  0999 V2000
    6.9720    2.7389    0.0000 O   0  0  0  0  0  0  0  0  0  0  0  0
    6.8675    1.7443    0.0000 C   0  0  1  0  0  0  0  0  0  0  0  0
    6.0585    2.3321    0.0000 H   0  0  0  0  0  0  0  0  0  0  0  0
    7.8620    1.6398    0.0000 C   0  0  0  0  0  0  0  0  0  0  0  0
    8.4498    2.4488    0.0000 C   0  0  2  0  0  0  0  0  0  0  0  0
    8.5543    3.4433    0.0000 H   0  0  0  0  0  0  0  0  0  0  0  0
    9.4443    2.3443    0.0000 C   0  0  0  0  0  0  0  0  0  0  0  0
    9.8511    1.4307    0.0000 C   0  0  0  0  0  0  0  0  0  0  0  0
    9.2633    0.6217    0.0000 O   0  0  0  0  0  0  0  0  0  0  0  0
   10.8456    1.3262    0.0000 O   0  0  0  0  0  0  0  0  0  0  0  0
   11.2523    0.4127    0.0000 C   0  0  3  0  0  0  0  0  0  0  0  0
   12.2469    0.3081    0.0000 O   0  0  0  0  0  0  0  0  0  0  0  0
   12.6536   -0.6054    0.0000 C   0  0  3  0  0  0  0  0  0  0  0  0
   13.6481   -0.7099    0.0000 C   0  0  0  0  0  0  0  0  0  0  0  0
   14.0549   -1.6235    0.0000 O   0  0  0  0  0  0  0  0  0  0  0  0
   14.2359    0.0991    0.0000 O   0  0  0  0  0  0  0  0  0  0  0  0
   12.0658   -1.4144    0.0000 C   0  0  3  0  0  0  0  0  0  0  0  0
   11.0713   -1.3099    0.0000 C   0  0  3  0  0  0  0  0  0  0  0  0
   10.6646   -0.3963    0.0000 C   0  0  3  0  0  0  0  0  0  0  0  0
    9.6700   -0.2918    0.0000 O   0  0  0  0  0  0  0  0  0  0  0  0
   10.4835   -2.1189    0.0000 O   0  0  0  0  0  0  0  0  0  0  0  0
   12.4725   -2.3280    0.0000 O   0  0  0  0  0  0  0  0  0  0  0  0
    7.6408    3.0366    0.0000 O   0  0  0  0  0  0  0  0  0  0  0  0
    6.2797    0.9353    0.0000 C   0  0  0  0  0  0  0  0  0  0  0  0
    5.2852    1.0398    0.0000 C   0  0  0  0  0  0  0  0  0  0  0  0
    4.6974    0.2308    0.0000 N   0  0  0  0  0  0  0  0  0  0  0  0
    3.6974    0.2308    0.0000 C   0  0  0  0  0  0  0  0  0  0  0  0
    3.1096    1.0398    0.0000 C   0  0  0  0  0  0  0  0  0  0  0  0
    2.1151    0.9353    0.0000 C   0  0  0  0  0  0  0  0  0  0  0  0
    3.5164    1.9534    0.0000 C   0  0  0  0  0  0  0  0  0  0  0  0
    3.3884   -0.7202    0.0000 C   0  0  0  0  0  0  0  0  0  0  0  0
    4.1974   -1.3080    0.0000 C   0  0  0  0  0  0  0  0  0  0  0  0
    5.0064   -0.7202    0.0000 C   0  0  0  0  0  0  0  0  0  0  0  0
    5.9575   -1.0292    0.0000 C   0  0  0  0  0  0  0  0  0  0  0  0
    6.1654   -2.0074    0.0000 C   0  0  0  0  0  0  0  0  0  0  0  0
    7.1165   -2.3164    0.0000 C   0  0  0  0  0  0  0  0  0  0  0  0
    7.8596   -1.6473    0.0000 C   0  0  0  0  0  0  0  0  0  0  0  0
    7.6517   -0.6691    0.0000 C   0  0  0  0  0  0  0  0  0  0  0  0
    6.7006   -0.3601    0.0000 C   0  0  0  0  0  0  0  0  0  0  0  0
    8.8107   -1.9563    0.0000 F   0  0  0  0  0  0  0  0  0  0  0  0
    4.1974   -2.3080    0.0000 C   0  0  0  0  0  0  0  0  0  0  0  0
    3.3314   -2.8080    0.0000 C   0  0  0  0  0  0  0  0  0  0  0  0
    3.3314   -3.8080    0.0000 C   0  0  0  0  0  0  0  0  0  0  0  0
    4.1974   -4.3080    0.0000 C   0  0  0  0  0  0  0  0  0  0  0  0
    5.0634   -3.8080    0.0000 C   0  0  0  0  0  0  0  0  0  0  0  0
    5.0634   -2.8080    0.0000 C   0  0  0  0  0  0  0  0  0  0  0  0
    2.4373   -1.0292    0.0000 C   0  0  0  0  0  0  0  0  0  0  0  0
    2.2294   -2.0074    0.0000 O   0  0  0  0  0  0  0  0  0  0  0  0
    1.6942   -0.3601    0.0000 N   0  0  0  0  0  0  0  0  0  0  0  0
    0.7431   -0.6691    0.0000 C   0  0  0  0  0  0  0  0  0  0  0  0
    0.5352   -1.6473    0.0000 C   0  0  0  0  0  0  0  0  0  0  0  0
   -0.4158   -1.9563    0.0000 C   0  0  0  0  0  0  0  0  0  0  0  0
   -1.1590   -1.2872    0.0000 C   0  0  0  0  0  0  0  0  0  0  0  0
   -0.9511   -0.3090    0.0000 C   0  0  0  0  0  0  0  0  0  0  0  0
    0.0000   -0.0000    0.0000 C   0  0  0  0  0  0  0  0  0  0  0  0
    0.2079    0.9781    0.0000 O   0  0  0  0  0  0  0  0  0  0  0  0
  1  2  1  0  0  0  0
  2  3  1  6  0  0  0
  2  4  1  0  0  0  0
  2 24  1  0  0  0  0
  4  5  1  0  0  0  0
  5  6  1  6  0  0  0
  5  7  1  0  0  0  0
  5 23  1  0  0  0  0
  7  8  1  0  0  0  0
  8  9  2  0  0  0  0
  8 10  1  0  0  0  0
 10 11  1  0  0  0  0
 11 19  1  0  0  0  0
 11 12  1  0  0  0  0
 12 13  1  0  0  0  0
 13 14  1  0  0  0  0
 13 17  1  0  0  0  0
 14 15  2  0  0  0  0
 14 16  1  0  0  0  0
 17 18  1  0  0  0  0
 17 22  1  0  0  0  0
 18 19  1  0  0  0  0
 18 21  1  0  0  0  0
 19 20  1  0  0  0  0
 24 25  1  0  0  0  0
 25 26  1  0  0  0  0
 26 33  1  0  0  0  0
 26 27  1  0  0  0  0
 27 28  1  0  0  0  0
 27 31  2  0  0  0  0
 28 29  1  0  0  0  0
 28 30  1  0  0  0  0
 31 32  1  0  0  0  0
 31 47  1  0  0  0  0
 32 33  2  0  0  0  0
 32 41  1  0  0  0  0
 33 34  1  0  0  0  0
 34 39  1  0  0  0  0
 34 35  2  0  0  0  0
 35 36  1  0  0  0  0
 36 37  2  0  0  0  0
 37 38  1  0  0  0  0
 37 40  1  0  0  0  0
 38 39  2  0  0  0  0
 41 46  1  0  0  0  0
 41 42  2  0  0  0  0
 42 43  1  0  0  0  0
 43 44  2  0  0  0  0
 44 45  1  0  0  0  0
 45 46  2  0  0  0  0
 47 48  2  0  0  0  0
 47 49  1  0  0  0  0
 49 50  1  0  0  0  0
 50 55  1  0  0  0  0
 50 51  2  0  0  0  0
 51 52  1  0  0  0  0
 52 53  2  0  0  0  0
 53 54  1  0  0  0  0
 54 55  2  0  0  0  0
 55 56  1  0  0  0  0
M  END
>  <Supplier>
www.ambinter.com

>  <Ambinter_reference>
Amb17615141

>  <MW>
750.763

$$$$
Amb17615142
 OpenBabel08272101522D

 56 60  0  0  1  0  0  0  0  0999 V2000
   -6.9720   -2.7389    0.0000 O   0  0  0  0  0  0  0  0  0  0  0  0
   -6.8675   -1.7443    0.0000 C   0  0  1  0  0  0  0  0  0  0  0  0
   -6.0585   -2.3321    0.0000 H   0  0  0  0  0  0  0  0  0  0  0  0
   -7.8620   -1.6398    0.0000 C   0  0  0  0  0  0  0  0  0  0  0  0
   -8.4498   -2.4488    0.0000 C   0  0  2  0  0  0  0  0  0  0  0  0
   -8.5543   -3.4433    0.0000 H   0  0  0  0  0  0  0  0  0  0  0  0
   -9.4443   -2.3443    0.0000 C   0  0  0  0  0  0  0  0  0  0  0  0
   -9.8511   -1.4307    0.0000 C   0  0  0  0  0  0  0  0  0  0  0  0
   -9.2633   -0.6217    0.0000 O   0  0  0  0  0  0  0  0  0  0  0  0
  -10.8456   -1.3262    0.0000 O   0  0  0  0  0  0  0  0  0  0  0  0
  -11.2523   -0.4127    0.0000 C   0  0  3  0  0  0  0  0  0  0  0  0
  -12.2469   -0.3081    0.0000 O   0  0  0  0  0  0  0  0  0  0  0  0
  -12.6536    0.6054    0.0000 C   0  0  3  0  0  0  0  0  0  0  0  0
  -13.6481    0.7099    0.0000 C   0  0  0  0  0  0  0  0  0  0  0  0
  -14.0549    1.6235    0.0000 O   0  0  0  0  0  0  0  0  0  0  0  0
  -14.2359   -0.0991    0.0000 O   0  0  0  0  0  0  0  0  0  0  0  0
  -12.0658    1.4144    0.0000 C   0  0  3  0  0  0  0  0  0  0  0  0
  -11.0713    1.3099    0.0000 C   0  0  3  0  0  0  0  0  0  0  0  0
  -10.6646    0.3963    0.0000 C   0  0  3  0  0  0  0  0  0  0  0  0
   -9.6700    0.2918    0.0000 O   0  0  0  0  0  0  0  0  0  0  0  0
  -10.4835    2.1189    0.0000 O   0  0  0  0  0  0  0  0  0  0  0  0
  -12.4725    2.3280    0.0000 O   0  0  0  0  0  0  0  0  0  0  0  0
   -7.6408   -3.0366    0.0000 O   0  0  0  0  0  0  0  0  0  0  0  0
   -6.2797   -0.9353    0.0000 C   0  0  0  0  0  0  0  0  0  0  0  0
   -5.2852   -1.0398    0.0000 C   0  0  0  0  0  0  0  0  0  0  0  0
   -4.6974   -0.2308    0.0000 N   0  0  0  0  0  0  0  0  0  0  0  0
   -3.6974   -0.2308    0.0000 C   0  0  0  0  0  0  0  0  0  0  0  0
   -3.1096   -1.0398    0.0000 C   0  0  0  0  0  0  0  0  0  0  0  0
   -2.1151   -0.9353    0.0000 C   0  0  0  0  0  0  0  0  0  0  0  0
   -3.5164   -1.9534    0.0000 C   0  0  0  0  0  0  0  0  0  0  0  0
   -3.3884    0.7202    0.0000 C   0  0  0  0  0  0  0  0  0  0  0  0
   -4.1974    1.3080    0.0000 C   0  0  0  0  0  0  0  0  0  0  0  0
   -5.0064    0.7202    0.0000 C   0  0  0  0  0  0  0  0  0  0  0  0
   -5.9575    1.0292    0.0000 C   0  0  0  0  0  0  0  0  0  0  0  0
   -6.1654    2.0074    0.0000 C   0  0  0  0  0  0  0  0  0  0  0  0
   -7.1165    2.3164    0.0000 C   0  0  0  0  0  0  0  0  0  0  0  0
   -7.8596    1.6473    0.0000 C   0  0  0  0  0  0  0  0  0  0  0  0
   -7.6517    0.6691    0.0000 C   0  0  0  0  0  0  0  0  0  0  0  0
   -6.7006    0.3601    0.0000 C   0  0  0  0  0  0  0  0  0  0  0  0
   -8.8107    1.9563    0.0000 F   0  0  0  0  0  0  0  0  0  0  0  0
   -4.1974    2.3080    0.0000 C   0  0  0  0  0  0  0  0  0  0  0  0
   -3.3314    2.8080    0.0000 C   0  0  0  0  0  0  0  0  0  0  0  0
   -3.3314    3.8080    0.0000 C   0  0  0  0  0  0  0  0  0  0  0  0
   -4.1974    4.3080    0.0000 C   0  0  0  0  0  0  0  0  0  0  0  0
   -5.0634    3.8080    0.0000 C   0  0  0  0  0  0  0  0  0  0  0  0
   -5.0634    2.8080    0.0000 C   0  0  0  0  0  0  0  0  0  0  0  0
   -2.4373    1.0292    0.0000 C   0  0  0  0  0  0  0  0  0  0  0  0
   -2.2294    2.0074    0.0000 O   0  0  0  0  0  0  0  0  0  0  0  0
   -1.6942    0.3601    0.0000 N   0  0  0  0  0  0  0  0  0  0  0  0
   -0.7431    0.6691    0.0000 C   0  0  0  0  0  0  0  0  0  0  0  0
   -0.5352    1.6473    0.0000 C   0  0  0  0  0  0  0  0  0  0  0  0
    0.4158    1.9563    0.0000 C   0  0  0  0  0  0  0  0  0  0  0  0
    1.1590    1.2872    0.0000 C   0  0  0  0  0  0  0  0  0  0  0  0
    0.9511    0.3090    0.0000 C   0  0  0  0  0  0  0  0  0  0  0  0
    0.0000    0.0000    0.0000 C   0  0  0  0  0  0  0  0  0  0  0  0
    2.1100    1.5962    0.0000 O   0  0  0  0  0  0  0  0  0  0  0  0
  1  2  1  0  0  0  0
  2  3  1  6  0  0  0
  2  4  1  0  0  0  0
  2 24  1  0  0  0  0
  4  5  1  0  0  0  0
  5  6  1  6  0  0  0
  5  7  1  0  0  0  0
  5 23  1  0  0  0  0
  7  8  1  0  0  0  0
  8  9  2  0  0  0  0
  8 10  1  0  0  0  0
 10 11  1  0  0  0  0
 11 19  1  0  0  0  0
 11 12  1  0  0  0  0
 12 13  1  0  0  0  0
 13 14  1  0  0  0  0
 13 17  1  0  0  0  0
 14 15  2  0  0  0  0
 14 16  1  0  0  0  0
 17 18  1  0  0  0  0
 17 22  1  0  0  0  0
 18 19  1  0  0  0  0
 18 21  1  0  0  0  0
 19 20  1  0  0  0  0
 24 25  1  0  0  0  0
 25 26  1  0  0  0  0
 26 33  1  0  0  0  0
 26 27  1  0  0  0  0
 27 28  1  0  0  0  0
 27 31  2  0  0  0  0
 28 29  1  0  0  0  0
 28 30  1  0  0  0  0
 31 32  1  0  0  0  0
 31 47  1  0  0  0  0
 32 33  2  0  0  0  0
 32 41  1  0  0  0  0
 33 34  1  0  0  0  0
 34 39  1  0  0  0  0
 34 35  2  0  0  0  0
 35 36  1  0  0  0  0
 36 37  2  0  0  0  0
 37 38  1  0  0  0  0
 37 40  1  0  0  0  0
 38 39  2  0  0  0  0
 41 46  1  0  0  0  0
 41 42  2  0  0  0  0
 42 43  1  0  0  0  0
 43 44  2  0  0  0  0
 44 45  1  0  0  0  0
 45 46  2  0  0  0  0
 47 48  2  0  0  0  0
 47 49  1  0  0  0  0
 49 50  1  0  0  0  0
 50 55  1  0  0  0  0
 50 51  2  0  0  0  0
 51 52  1  0  0  0  0
 52 53  2  0  0  0  0
 53 54  1  0  0  0  0
 53 56  1  0  0  0  0
 54 55  2  0  0  0  0
M  END
>  <Supplier>
www.ambinter.com

>  <Ambinter_reference>
Amb17615142

>  <MW>
750.763

$$$$
Amb17615143
 OpenBabel08272101522D

 45 47  0  0  1  0  0  0  0  0999 V2000
    6.3162   -8.1582    0.0000 O   0  0  0  0  0  0  0  0  0  0  0  0
    7.1252   -7.5704    0.0000 C   0  0  1  0  0  0  0  0  0  0  0  0
    7.7130   -8.3794    0.0000 H   0  0  0  0  0  0  0  0  0  0  0  0
    7.9342   -6.9826    0.0000 C   0  0  0  0  0  0  0  0  0  0  0  0
    8.8478   -7.3894    0.0000 C   0  0  2  0  0  0  0  0  0  0  0  0
    9.4356   -8.1984    0.0000 H   0  0  0  0  0  0  0  0  0  0  0  0
    9.6568   -6.8016    0.0000 C   0  0  0  0  0  0  0  0  0  0  0  0
   10.5703   -7.2083    0.0000 C   0  0  0  0  0  0  0  0  0  0  0  0
   11.3794   -6.6205    0.0000 O   0  0  0  0  0  0  0  0  0  0  0  0
   10.6749   -8.2028    0.0000 O   0  5  0  0  0  0  0  0  0  0  0  0
    8.4410   -8.3029    0.0000 O   0  0  0  0  0  0  0  0  0  0  0  0
    6.5374   -6.7614    0.0000 C   0  0  0  0  0  0  0  0  0  0  0  0
    6.9442   -5.8479    0.0000 C   0  0  0  0  0  0  0  0  0  0  0  0
    6.3564   -5.0388    0.0000 N   0  0  0  0  0  0  0  0  0  0  0  0
    5.3564   -5.0388    0.0000 C   0  0  0  0  0  0  0  0  0  0  0  0
    4.7686   -5.8479    0.0000 C   0  0  0  0  0  0  0  0  0  0  0  0
    3.7741   -5.7433    0.0000 C   0  0  0  0  0  0  0  0  0  0  0  0
    5.1753   -6.7614    0.0000 C   0  0  0  0  0  0  0  0  0  0  0  0
    5.0474   -4.0878    0.0000 C   0  0  0  0  0  0  0  0  0  0  0  0
    5.8564   -3.5000    0.0000 C   0  0  0  0  0  0  0  0  0  0  0  0
    6.6654   -4.0878    0.0000 C   0  0  0  0  0  0  0  0  0  0  0  0
    7.6165   -3.7788    0.0000 C   0  0  0  0  0  0  0  0  0  0  0  0
    7.8244   -2.8006    0.0000 C   0  0  0  0  0  0  0  0  0  0  0  0
    8.7754   -2.4916    0.0000 C   0  0  0  0  0  0  0  0  0  0  0  0
    9.5186   -3.1607    0.0000 C   0  0  0  0  0  0  0  0  0  0  0  0
    9.3107   -4.1389    0.0000 C   0  0  0  0  0  0  0  0  0  0  0  0
    8.3596   -4.4479    0.0000 C   0  0  0  0  0  0  0  0  0  0  0  0
   10.4696   -2.8517    0.0000 F   0  0  0  0  0  0  0  0  0  0  0  0
    5.8564   -2.5000    0.0000 C   0  0  0  0  0  0  0  0  0  0  0  0
    4.9904   -2.0000    0.0000 C   0  0  0  0  0  0  0  0  0  0  0  0
    4.9904   -1.0000    0.0000 C   0  0  0  0  0  0  0  0  0  0  0  0
    5.8564   -0.5000    0.0000 C   0  0  0  0  0  0  0  0  0  0  0  0
    6.7224   -1.0000    0.0000 C   0  0  0  0  0  0  0  0  0  0  0  0
    6.7224   -2.0000    0.0000 C   0  0  0  0  0  0  0  0  0  0  0  0
    4.0963   -3.7788    0.0000 C   0  0  0  0  0  0  0  0  0  0  0  0
    3.8884   -2.8006    0.0000 O   0  0  0  0  0  0  0  0  0  0  0  0
    3.3532   -4.4479    0.0000 N   0  0  0  0  0  0  0  0  0  0  0  0
    2.4021   -4.1389    0.0000 C   0  0  0  0  0  0  0  0  0  0  0  0
    1.6590   -4.8080    0.0000 C   0  0  0  0  0  0  0  0  0  0  0  0
    0.7079   -4.4990    0.0000 C   0  0  0  0  0  0  0  0  0  0  0  0
    0.5000   -3.5208    0.0000 C   0  0  0  0  0  0  0  0  0  0  0  0
    1.2431   -2.8517    0.0000 C   0  0  0  0  0  0  0  0  0  0  0  0
    2.1942   -3.1607    0.0000 C   0  0  0  0  0  0  0  0  0  0  0  0
    2.9373   -2.4916    0.0000 O   0  0  0  0  0  0  0  0  0  0  0  0
   -3.6076   -0.6410    0.0000 Na  0  3  0  0  0 15  0  0  0  0  0  0
  1  2  1  0  0  0  0
  2  3  1  1  0  0  0
  2  4  1  0  0  0  0
  2 12  1  0  0  0  0
  4  5  1  0  0  0  0
  5  6  1  1  0  0  0
  5  7  1  0  0  0  0
  5 11  1  0  0  0  0
  7  8  1  0  0  0  0
  8  9  2  0  0  0  0
  8 10  1  0  0  0  0
 12 13  1  0  0  0  0
 13 14  1  0  0  0  0
 14 21  1  0  0  0  0
 14 15  1  0  0  0  0
 15 16  1  0  0  0  0
 15 19  2  0  0  0  0
 16 17  1  0  0  0  0
 16 18  1  0  0  0  0
 19 20  1  0  0  0  0
 19 35  1  0  0  0  0
 20 21  2  0  0  0  0
 20 29  1  0  0  0  0
 21 22  1  0  0  0  0
 22 27  1  0  0  0  0
 22 23  2  0  0  0  0
 23 24  1  0  0  0  0
 24 25  2  0  0  0  0
 25 26  1  0  0  0  0
 25 28  1  0  0  0  0
 26 27  2  0  0  0  0
 29 34  1  0  0  0  0
 29 30  2  0  0  0  0
 30 31  1  0  0  0  0
 31 32  2  0  0  0  0
 32 33  1  0  0  0  0
 33 34  2  0  0  0  0
 35 36  2  0  0  0  0
 35 37  1  0  0  0  0
 37 38  1  0  0  0  0
 38 43  1  0  0  0  0
 38 39  2  0  0  0  0
 39 40  1  0  0  0  0
 40 41  2  0  0  0  0
 41 42  1  0  0  0  0
 42 43  2  0  0  0  0
 43 44  1  0  0  0  0
M  CHG  2  10  -1  45   1
M  END
>  <Supplier>
www.ambinter.com

>  <Ambinter_reference>
Amb17615143

>  <MW>
596.621

$$$$
Amb17615144
 OpenBabel08272101522D

 51 52  0  0  1  0  0  0  0  0999 V2000
    5.4676   -0.7171    0.0000 O   0  0  0  0  0  0  0  0  0  0  0  0
    4.6739   -1.2938    0.0000 C   0  0  1  0  0  0  0  0  0  0  0  0
    4.0972   -0.5000    0.0000 H   0  0  0  0  0  0  0  0  0  0  0  0
    3.8801   -1.8704    0.0000 C   0  0  0  0  0  0  0  0  0  0  0  0
    2.9838   -1.4714    0.0000 C   0  0  2  0  0  0  0  0  0  0  0  0
    2.4071   -0.6776    0.0000 H   0  0  0  0  0  0  0  0  0  0  0  0
    2.1901   -2.0481    0.0000 C   0  0  0  0  0  0  0  0  0  0  0  0
    1.2938   -1.6490    0.0000 C   0  0  0  0  0  0  0  0  0  0  0  0
    0.5000   -2.2257    0.0000 O   0  0  0  0  0  0  0  0  0  0  0  0
    1.1912   -0.6733    0.0000 O   0  5  0  0  0  0  0  0  0  0  0  0
    3.3829   -0.5751    0.0000 O   0  0  0  0  0  0  0  0  0  0  0  0
    5.2506   -2.0875    0.0000 C   0  0  0  0  0  0  0  0  0  0  0  0
    4.8515   -2.9838    0.0000 C   0  0  0  0  0  0  0  0  0  0  0  0
    5.4282   -3.7776    0.0000 N   0  0  0  0  0  0  0  0  0  0  0  0
    6.4093   -3.7776    0.0000 C   0  0  0  0  0  0  0  0  0  0  0  0
    6.9860   -2.9838    0.0000 C   0  0  0  0  0  0  0  0  0  0  0  0
    7.9618   -3.0864    0.0000 C   0  0  0  0  0  0  0  0  0  0  0  0
    6.5870   -2.0875    0.0000 C   0  0  0  0  0  0  0  0  0  0  0  0
    6.7125   -4.7107    0.0000 C   0  0  0  0  0  0  0  0  0  0  0  0
    5.9188   -5.2874    0.0000 C   0  0  0  0  0  0  0  0  0  0  0  0
    5.1250   -4.7107    0.0000 C   0  0  0  0  0  0  0  0  0  0  0  0
    4.1919   -5.0139    0.0000 C   0  0  0  0  0  0  0  0  0  0  0  0
    3.9879   -5.9736    0.0000 C   0  0  0  0  0  0  0  0  0  0  0  0
    3.0548   -6.2767    0.0000 C   0  0  0  0  0  0  0  0  0  0  0  0
    2.3257   -5.6202    0.0000 C   0  0  0  0  0  0  0  0  0  0  0  0
    2.5297   -4.6605    0.0000 C   0  0  0  0  0  0  0  0  0  0  0  0
    3.4628   -4.3574    0.0000 C   0  0  0  0  0  0  0  0  0  0  0  0
    1.3926   -5.9234    0.0000 F   0  0  0  0  0  0  0  0  0  0  0  0
    5.9188   -7.2496    0.0000 C   0  0  0  0  0  0  0  0  0  0  0  0
    6.7685   -7.7402    0.0000 C   0  0  0  0  0  0  0  0  0  0  0  0
    7.6181   -7.2496    0.0000 H   0  0  0  0  0  0  0  0  0  0  0  0
    6.7685   -8.7213    0.0000 C   0  0  0  0  0  0  0  0  0  0  0  0
    7.6181   -9.2119    0.0000 H   0  0  0  0  0  0  0  0  0  0  0  0
    5.9188   -9.2119    0.0000 C   0  0  0  0  0  0  0  0  0  0  0  0
    5.0691   -8.7213    0.0000 C   0  0  0  0  0  0  0  0  0  0  0  0
    5.0691   -7.7402    0.0000 C   0  0  0  0  0  0  0  0  0  0  0  0
    4.2194   -7.2496    0.0000 H   0  0  0  0  0  0  0  0  0  0  0  0
    4.2194   -9.2119    0.0000 H   0  0  0  0  0  0  0  0  0  0  0  0
    5.9188  -10.1930    0.0000 H   0  0  0  0  0  0  0  0  0  0  0  0
    7.6456   -5.0139    0.0000 C   0  0  0  0  0  0  0  0  0  0  0  0
    7.8496   -5.9736    0.0000 O   0  0  0  0  0  0  0  0  0  0  0  0
    8.3748   -4.3574    0.0000 N   0  0  0  0  0  0  0  0  0  0  0  0
    9.3079   -4.6605    0.0000 C   0  0  0  0  0  0  0  0  0  0  0  0
   10.0370   -4.0040    0.0000 C   0  0  0  0  0  0  0  0  0  0  0  0
   10.9701   -4.3072    0.0000 C   0  0  0  0  0  0  0  0  0  0  0  0
   11.1741   -5.2669    0.0000 C   0  0  0  0  0  0  0  0  0  0  0  0
   10.4450   -5.9234    0.0000 C   0  0  0  0  0  0  0  0  0  0  0  0
    9.5119   -5.6202    0.0000 C   0  0  0  0  0  0  0  0  0  0  0  0
    8.7827   -6.2767    0.0000 O   0  5  0  0  0  0  0  0  0  0  0  0
   -3.7261   -1.2232    0.0000 Na  0  3  0  0  0 15  0  0  0  0  0  0
   12.1741   -0.5000    0.0000 Na  0  3  0  0  0 15  0  0  0  0  0  0
  1  2  1  0  0  0  0
  2  3  1  1  0  0  0
  2  4  1  0  0  0  0
  2 12  1  0  0  0  0
  4  5  1  0  0  0  0
  5  6  1  1  0  0  0
  5  7  1  0  0  0  0
  5 11  1  0  0  0  0
  7  8  1  0  0  0  0
  8  9  2  0  0  0  0
  8 10  1  0  0  0  0
 12 13  1  0  0  0  0
 13 14  1  0  0  0  0
 14 21  1  0  0  0  0
 14 15  1  0  0  0  0
 15 16  1  0  0  0  0
 15 19  2  0  0  0  0
 16 17  1  0  0  0  0
 16 18  1  0  0  0  0
 19 20  1  0  0  0  0
 19 40  1  0  0  0  0
 20 21  2  0  0  0  0
 20 29  1  0  0  0  0
 21 22  1  0  0  0  0
 22 27  1  0  0  0  0
 22 23  2  0  0  0  0
 23 24  1  0  0  0  0
 24 25  2  0  0  0  0
 25 26  1  0  0  0  0
 25 28  1  0  0  0  0
 26 27  2  0  0  0  0
 29 36  1  0  0  0  0
 29 30  2  0  0  0  0
 30 31  1  0  0  0  0
 30 32  1  0  0  0  0
 32 33  1  0  0  0  0
 32 34  2  0  0  0  0
 34 35  1  0  0  0  0
 34 39  1  0  0  0  0
 35 36  2  0  0  0  0
 35 38  1  0  0  0  0
 36 37  1  0  0  0  0
 40 41  2  0  0  0  0
 40 42  1  0  0  0  0
 42 43  1  0  0  0  0
 43 48  1  0  0  0  0
 43 44  2  0  0  0  0
 44 45  1  0  0  0  0
 45 46  2  0  0  0  0
 46 47  1  0  0  0  0
 47 48  2  0  0  0  0
 48 49  1  0  0  0  0
M  ISO  5  31   2  33   2  37   2  38   2  39   2
M  CHG  4  10  -1  49  -1  50   1  51   1
M  END
>  <Supplier>
www.ambinter.com

>  <Ambinter_reference>
Amb17615144

>  <MW>
623.634

$$$$
Amb17615145
 OpenBabel08272101522D

 43 47  0  0  1  0  0  0  0  0999 V2000
   -1.7648   -0.7858    0.0000 O   0  0  0  0  0  0  0  0  0  0  0  0
   -0.9877   -0.1564    0.0000 C   0  0  2  0  0  0  0  0  0  0  0  0
   -0.8313   -1.1441    0.0000 H   0  0  0  0  0  0  0  0  0  0  0  0
   -1.6170    0.6207    0.0000 C   0  0  0  0  0  0  0  0  0  0  0  0
   -1.2586    1.5543    0.0000 C   0  0  1  0  0  0  0  0  0  0  0  0
   -0.7815    2.4331    0.0000 H   0  0  0  0  0  0  0  0  0  0  0  0
   -2.2532    1.6588    0.0000 C   0  0  0  0  0  0  0  0  0  0  0  0
   -2.6599    2.5724    0.0000 C   0  0  0  0  0  0  0  0  0  0  0  0
   -3.6544    2.6769    0.0000 N   0  0  0  0  0  0  0  0  0  0  0  0
   -4.3236    1.9337    0.0000 C   0  0  0  0  0  0  0  0  0  0  0  0
   -4.1156    0.9556    0.0000 C   0  0  0  0  0  0  0  0  0  0  0  0
   -4.8588    0.2865    0.0000 C   0  0  0  0  0  0  0  0  0  0  0  0
   -3.1646    0.6466    0.0000 C   0  0  0  0  0  0  0  0  0  0  0  0
   -5.2371    2.3405    0.0000 C   0  0  0  0  0  0  0  0  0  0  0  0
   -5.1326    3.3350    0.0000 C   0  0  0  0  0  0  0  0  0  0  0  0
   -4.1544    3.5429    0.0000 C   0  0  0  0  0  0  0  0  0  0  0  0
   -3.7477    4.4565    0.0000 C   0  0  0  0  0  0  0  0  0  0  0  0
   -4.3355    5.2655    0.0000 C   0  0  0  0  0  0  0  0  0  0  0  0
   -3.9287    6.1790    0.0000 C   0  0  0  0  0  0  0  0  0  0  0  0
   -2.9342    6.2836    0.0000 C   0  0  0  0  0  0  0  0  0  0  0  0
   -2.3464    5.4745    0.0000 C   0  0  0  0  0  0  0  0  0  0  0  0
   -2.7532    4.5610    0.0000 C   0  0  0  0  0  0  0  0  0  0  0  0
   -2.5275    7.1971    0.0000 F   0  0  0  0  0  0  0  0  0  0  0  0
   -5.8757    4.0041    0.0000 C   0  0  0  0  0  0  0  0  0  0  0  0
   -6.8268    3.6951    0.0000 C   0  0  0  0  0  0  0  0  0  0  0  0
   -7.5699    4.3643    0.0000 C   0  0  0  0  0  0  0  0  0  0  0  0
   -7.3620    5.3424    0.0000 C   0  0  0  0  0  0  0  0  0  0  0  0
   -6.4109    5.6514    0.0000 C   0  0  0  0  0  0  0  0  0  0  0  0
   -5.6678    4.9823    0.0000 C   0  0  0  0  0  0  0  0  0  0  0  0
   -6.1031    1.8405    0.0000 C   0  0  0  0  0  0  0  0  0  0  0  0
   -6.9691    2.3405    0.0000 O   0  0  0  0  0  0  0  0  0  0  0  0
   -6.1031    0.8405    0.0000 N   0  0  0  0  0  0  0  0  0  0  0  0
   -6.9691    0.3405    0.0000 C   0  0  0  0  0  0  0  0  0  0  0  0
   -6.9691   -0.6595    0.0000 C   0  0  0  0  0  0  0  0  0  0  0  0
   -7.8352   -1.1595    0.0000 C   0  0  0  0  0  0  0  0  0  0  0  0
   -8.7012   -0.6595    0.0000 C   0  0  0  0  0  0  0  0  0  0  0  0
   -8.7012    0.3405    0.0000 C   0  0  0  0  0  0  0  0  0  0  0  0
   -7.8352    0.8405    0.0000 C   0  0  0  0  0  0  0  0  0  0  0  0
   -7.8352    1.8405    0.0000 O   0  0  0  0  0  0  0  0  0  0  0  0
   -0.2710    1.7107    0.0000 O   0  0  0  0  0  0  0  0  0  0  0  0
    0.3584    0.9336    0.0000 C   0  0  0  0  0  0  0  0  0  0  0  0
    1.3461    1.0900    0.0000 O   0  0  0  0  0  0  0  0  0  0  0  0
    0.0000   -0.0000    0.0000 C   0  0  0  0  0  0  0  0  0  0  0  0
  1  2  1  0  0  0  0
  2  3  1  1  0  0  0
  2 43  1  0  0  0  0
  2  4  1  0  0  0  0
  4  5  1  0  0  0  0
  5  6  1  6  0  0  0
  5  7  1  0  0  0  0
  5 40  1  0  0  0  0
  7  8  1  0  0  0  0
  8  9  1  0  0  0  0
  9 16  1  0  0  0  0
  9 10  1  0  0  0  0
 10 11  1  0  0  0  0
 10 14  2  0  0  0  0
 11 12  1  0  0  0  0
 11 13  1  0  0  0  0
 14 15  1  0  0  0  0
 14 30  1  0  0  0  0
 15 16  2  0  0  0  0
 15 24  1  0  0  0  0
 16 17  1  0  0  0  0
 17 22  1  0  0  0  0
 17 18  2  0  0  0  0
 18 19  1  0  0  0  0
 19 20  2  0  0  0  0
 20 21  1  0  0  0  0
 20 23  1  0  0  0  0
 21 22  2  0  0  0  0
 24 29  1  0  0  0  0
 24 25  2  0  0  0  0
 25 26  1  0  0  0  0
 26 27  2  0  0  0  0
 27 28  1  0  0  0  0
 28 29  2  0  0  0  0
 30 31  2  0  0  0  0
 30 32  1  0  0  0  0
 32 33  1  0  0  0  0
 33 38  1  0  0  0  0
 33 34  2  0  0  0  0
 34 35  1  0  0  0  0
 35 36  2  0  0  0  0
 36 37  1  0  0  0  0
 37 38  2  0  0  0  0
 38 39  1  0  0  0  0
 40 41  1  0  0  0  0
 41 42  2  0  0  0  0
 41 43  1  0  0  0  0
M  END
>  <Supplier>
www.ambinter.com

>  <Ambinter_reference>
Amb17615145

>  <MW>
556.624

$$$$
Amb17615147
 OpenBabel08272101522D

 46 47  0  0  1  0  0  0  0  0999 V2000
    7.2673   -8.1582    0.0000 O   0  0  0  0  0  0  0  0  0  0  0  0
    8.0763   -7.5704    0.0000 C   0  0  1  0  0  0  0  0  0  0  0  0
    8.6641   -8.3794    0.0000 H   0  0  0  0  0  0  0  0  0  0  0  0
    8.8853   -6.9826    0.0000 C   0  0  0  0  0  0  0  0  0  0  0  0
    9.7988   -7.3894    0.0000 C   0  0  2  0  0  0  0  0  0  0  0  0
   10.3866   -8.1984    0.0000 H   0  0  0  0  0  0  0  0  0  0  0  0
   10.6079   -6.8016    0.0000 C   0  0  0  0  0  0  0  0  0  0  0  0
   11.5214   -7.2083    0.0000 C   0  0  0  0  0  0  0  0  0  0  0  0
   12.3304   -6.6205    0.0000 O   0  0  0  0  0  0  0  0  0  0  0  0
   11.6259   -8.2028    0.0000 O   0  5  0  0  0  0  0  0  0  0  0  0
    9.3921   -8.3029    0.0000 O   0  0  0  0  0  0  0  0  0  0  0  0
    7.4885   -6.7614    0.0000 C   0  0  0  0  0  0  0  0  0  0  0  0
    7.8952   -5.8479    0.0000 C   0  0  0  0  0  0  0  0  0  0  0  0
    7.3074   -5.0388    0.0000 N   0  0  0  0  0  0  0  0  0  0  0  0
    6.3074   -5.0388    0.0000 C   0  0  0  0  0  0  0  0  0  0  0  0
    5.7197   -5.8479    0.0000 C   0  0  0  0  0  0  0  0  0  0  0  0
    4.7251   -5.7433    0.0000 C   0  0  0  0  0  0  0  0  0  0  0  0
    6.1264   -6.7614    0.0000 C   0  0  0  0  0  0  0  0  0  0  0  0
    5.9984   -4.0878    0.0000 C   0  0  0  0  0  0  0  0  0  0  0  0
    6.8074   -3.5000    0.0000 C   0  0  0  0  0  0  0  0  0  0  0  0
    7.6165   -4.0878    0.0000 C   0  0  0  0  0  0  0  0  0  0  0  0
    8.5675   -3.7788    0.0000 C   0  0  0  0  0  0  0  0  0  0  0  0
    8.7754   -2.8006    0.0000 C   0  0  0  0  0  0  0  0  0  0  0  0
    9.7265   -2.4916    0.0000 C   0  0  0  0  0  0  0  0  0  0  0  0
   10.4696   -3.1607    0.0000 C   0  0  0  0  0  0  0  0  0  0  0  0
   10.2617   -4.1389    0.0000 C   0  0  0  0  0  0  0  0  0  0  0  0
    9.3107   -4.4479    0.0000 C   0  0  0  0  0  0  0  0  0  0  0  0
   11.4207   -2.8517    0.0000 F   0  0  0  0  0  0  0  0  0  0  0  0
    6.8074   -2.5000    0.0000 C   0  0  0  0  0  0  0  0  0  0  0  0
    5.9414   -2.0000    0.0000 C   0  0  0  0  0  0  0  0  0  0  0  0
    5.9414   -1.0000    0.0000 C   0  0  0  0  0  0  0  0  0  0  0  0
    6.8074   -0.5000    0.0000 C   0  0  0  0  0  0  0  0  0  0  0  0
    7.6735   -1.0000    0.0000 C   0  0  0  0  0  0  0  0  0  0  0  0
    7.6735   -2.0000    0.0000 C   0  0  0  0  0  0  0  0  0  0  0  0
    5.0474   -3.7788    0.0000 C   0  0  0  0  0  0  0  0  0  0  0  0
    4.8395   -2.8006    0.0000 O   0  0  0  0  0  0  0  0  0  0  0  0
    4.3042   -4.4479    0.0000 N   0  0  0  0  0  0  0  0  0  0  0  0
    3.3532   -4.1389    0.0000 C   0  0  0  0  0  0  0  0  0  0  0  0
    2.6100   -4.8080    0.0000 C   0  0  0  0  0  0  0  0  0  0  0  0
    1.6590   -4.4990    0.0000 C   0  0  0  0  0  0  0  0  0  0  0  0
    1.4511   -3.5208    0.0000 C   0  0  0  0  0  0  0  0  0  0  0  0
    2.1942   -2.8517    0.0000 C   0  0  0  0  0  0  0  0  0  0  0  0
    3.1453   -3.1607    0.0000 C   0  0  0  0  0  0  0  0  0  0  0  0
    0.5000   -3.2118    0.0000 O   0  5  0  0  0  0  0  0  0  0  0  0
   -3.6748   -0.9877    0.0000 Na  0  3  0  0  0 15  0  0  0  0  0  0
   13.3304   -0.5000    0.0000 Na  0  3  0  0  0 15  0  0  0  0  0  0
  1  2  1  0  0  0  0
  2  3  1  1  0  0  0
  2  4  1  0  0  0  0
  2 12  1  0  0  0  0
  4  5  1  0  0  0  0
  5  6  1  1  0  0  0
  5  7  1  0  0  0  0
  5 11  1  0  0  0  0
  7  8  1  0  0  0  0
  8  9  2  0  0  0  0
  8 10  1  0  0  0  0
 12 13  1  0  0  0  0
 13 14  1  0  0  0  0
 14 21  1  0  0  0  0
 14 15  1  0  0  0  0
 15 16  1  0  0  0  0
 15 19  2  0  0  0  0
 16 17  1  0  0  0  0
 16 18  1  0  0  0  0
 19 20  1  0  0  0  0
 19 35  1  0  0  0  0
 20 21  2  0  0  0  0
 20 29  1  0  0  0  0
 21 22  1  0  0  0  0
 22 27  1  0  0  0  0
 22 23  2  0  0  0  0
 23 24  1  0  0  0  0
 24 25  2  0  0  0  0
 25 26  1  0  0  0  0
 25 28  1  0  0  0  0
 26 27  2  0  0  0  0
 29 34  1  0  0  0  0
 29 30  2  0  0  0  0
 30 31  1  0  0  0  0
 31 32  2  0  0  0  0
 32 33  1  0  0  0  0
 33 34  2  0  0  0  0
 35 36  2  0  0  0  0
 35 37  1  0  0  0  0
 37 38  1  0  0  0  0
 38 43  1  0  0  0  0
 38 39  2  0  0  0  0
 39 40  1  0  0  0  0
 40 41  2  0  0  0  0
 41 42  1  0  0  0  0
 41 44  1  0  0  0  0
 42 43  2  0  0  0  0
M  CHG  4  10  -1  44  -1  45   1  46   1
M  END
>  <Supplier>
www.ambinter.com

>  <Ambinter_reference>
Amb17615147

>  <MW>
618.603

$$$$
Amb17615148
 OpenBabel08272101522D

 51 52  0  0  1  0  0  0  0  0999 V2000
    2.9876   -8.8226    0.0000 O   0  0  0  0  0  0  0  0  0  0  0  0
    3.7813   -9.3993    0.0000 C   0  0  1  0  0  0  0  0  0  0  0  0
    3.2046  -10.1930    0.0000 H   0  0  0  0  0  0  0  0  0  0  0  0
    4.5751   -9.9760    0.0000 C   0  0  0  0  0  0  0  0  0  0  0  0
    4.4725  -10.9517    0.0000 C   0  0  2  0  0  0  0  0  0  0  0  0
    4.8716  -11.8480    0.0000 H   0  0  0  0  0  0  0  0  0  0  0  0
    3.5762  -11.3508    0.0000 C   0  0  0  0  0  0  0  0  0  0  0  0
    3.4736  -12.3266    0.0000 C   0  0  0  0  0  0  0  0  0  0  0  0
    2.5773  -12.7256    0.0000 O   0  0  0  0  0  0  0  0  0  0  0  0
    4.2674  -12.9032    0.0000 O   0  5  0  0  0  0  0  0  0  0  0  0
    5.4483  -11.0543    0.0000 O   0  0  0  0  0  0  0  0  0  0  0  0
    4.3580   -8.6055    0.0000 C   0  0  0  0  0  0  0  0  0  0  0  0
    3.9589   -7.7092    0.0000 C   0  0  0  0  0  0  0  0  0  0  0  0
    4.5356   -6.9155    0.0000 N   0  0  0  0  0  0  0  0  0  0  0  0
    5.5168   -6.9155    0.0000 C   0  0  0  0  0  0  0  0  0  0  0  0
    6.0935   -7.7092    0.0000 C   0  0  0  0  0  0  0  0  0  0  0  0
    7.0692   -7.6067    0.0000 C   0  0  0  0  0  0  0  0  0  0  0  0
    5.6944   -8.6055    0.0000 C   0  0  0  0  0  0  0  0  0  0  0  0
    5.8200   -5.9824    0.0000 C   0  0  0  0  0  0  0  0  0  0  0  0
    5.0262   -5.4057    0.0000 C   0  0  0  0  0  0  0  0  0  0  0  0
    4.2324   -5.9824    0.0000 C   0  0  0  0  0  0  0  0  0  0  0  0
    3.2993   -5.6792    0.0000 C   0  0  0  0  0  0  0  0  0  0  0  0
    3.0953   -4.7195    0.0000 C   0  0  0  0  0  0  0  0  0  0  0  0
    2.1622   -4.4163    0.0000 C   0  0  0  0  0  0  0  0  0  0  0  0
    1.4331   -5.0728    0.0000 C   0  0  0  0  0  0  0  0  0  0  0  0
    1.6371   -6.0325    0.0000 C   0  0  0  0  0  0  0  0  0  0  0  0
    2.5702   -6.3357    0.0000 C   0  0  0  0  0  0  0  0  0  0  0  0
    0.5000   -4.7696    0.0000 F   0  0  0  0  0  0  0  0  0  0  0  0
    5.0262   -3.4434    0.0000 C   0  0  0  0  0  0  0  0  0  0  0  0
    5.8759   -2.9528    0.0000 C   0  0  0  0  0  0  0  0  0  0  0  0
    6.7256   -3.4434    0.0000 H   0  0  0  0  0  0  0  0  0  0  0  0
    5.8759   -1.9717    0.0000 C   0  0  0  0  0  0  0  0  0  0  0  0
    6.7256   -1.4811    0.0000 H   0  0  0  0  0  0  0  0  0  0  0  0
    5.0262   -1.4811    0.0000 C   0  0  0  0  0  0  0  0  0  0  0  0
    4.1765   -1.9717    0.0000 C   0  0  0  0  0  0  0  0  0  0  0  0
    4.1765   -2.9528    0.0000 C   0  0  0  0  0  0  0  0  0  0  0  0
    3.3268   -3.4434    0.0000 H   0  0  0  0  0  0  0  0  0  0  0  0
    3.3268   -1.4811    0.0000 H   0  0  0  0  0  0  0  0  0  0  0  0
    5.0262   -0.5000    0.0000 H   0  0  0  0  0  0  0  0  0  0  0  0
    6.7531   -5.6792    0.0000 C   0  0  0  0  0  0  0  0  0  0  0  0
    6.9571   -4.7195    0.0000 O   0  0  0  0  0  0  0  0  0  0  0  0
    7.4822   -6.3357    0.0000 N   0  0  0  0  0  0  0  0  0  0  0  0
    8.4153   -6.0325    0.0000 C   0  0  0  0  0  0  0  0  0  0  0  0
    9.1444   -6.6890    0.0000 C   0  0  0  0  0  0  0  0  0  0  0  0
   10.0775   -6.3858    0.0000 C   0  0  0  0  0  0  0  0  0  0  0  0
   10.2815   -5.4261    0.0000 C   0  0  0  0  0  0  0  0  0  0  0  0
    9.5524   -4.7696    0.0000 C   0  0  0  0  0  0  0  0  0  0  0  0
    8.6193   -5.0728    0.0000 C   0  0  0  0  0  0  0  0  0  0  0  0
   11.2146   -5.1229    0.0000 O   0  5  0  0  0  0  0  0  0  0  0  0
    1.3078   -0.9525    0.0000 Na  0  3  0  0  0 15  0  0  0  0  0  0
   12.2146   -0.5000    0.0000 Na  0  3  0  0  0 15  0  0  0  0  0  0
  1  2  1  0  0  0  0
  2  3  1  1  0  0  0
  2  4  1  0  0  0  0
  2 12  1  0  0  0  0
  4  5  1  0  0  0  0
  5  6  1  6  0  0  0
  5  7  1  0  0  0  0
  5 11  1  0  0  0  0
  7  8  1  0  0  0  0
  8  9  2  0  0  0  0
  8 10  1  0  0  0  0
 12 13  1  0  0  0  0
 13 14  1  0  0  0  0
 14 21  1  0  0  0  0
 14 15  1  0  0  0  0
 15 16  1  0  0  0  0
 15 19  2  0  0  0  0
 16 17  1  0  0  0  0
 16 18  1  0  0  0  0
 19 20  1  0  0  0  0
 19 40  1  0  0  0  0
 20 21  2  0  0  0  0
 20 29  1  0  0  0  0
 21 22  1  0  0  0  0
 22 27  1  0  0  0  0
 22 23  2  0  0  0  0
 23 24  1  0  0  0  0
 24 25  2  0  0  0  0
 25 26  1  0  0  0  0
 25 28  1  0  0  0  0
 26 27  2  0  0  0  0
 29 36  1  0  0  0  0
 29 30  2  0  0  0  0
 30 31  1  0  0  0  0
 30 32  1  0  0  0  0
 32 33  1  0  0  0  0
 32 34  2  0  0  0  0
 34 35  1  0  0  0  0
 34 39  1  0  0  0  0
 35 36  2  0  0  0  0
 35 38  1  0  0  0  0
 36 37  1  0  0  0  0
 40 41  2  0  0  0  0
 40 42  1  0  0  0  0
 42 43  1  0  0  0  0
 43 48  1  0  0  0  0
 43 44  2  0  0  0  0
 44 45  1  0  0  0  0
 45 46  2  0  0  0  0
 46 47  1  0  0  0  0
 46 49  1  0  0  0  0
 47 48  2  0  0  0  0
M  ISO  5  31   2  33   2  37   2  38   2  39   2
M  CHG  4  10  -1  49  -1  50   1  51   1
M  END
>  <Supplier>
www.ambinter.com

>  <Ambinter_reference>
Amb17615148

>  <MW>
623.634

$$$$
Amb17617195
 OpenBabel08272101522D

 44 47  0  0  1  0  0  0  0  0999 V2000
   -7.2101   -5.6784    0.0000 C   0  0  0  0  0  0  0  0  0  0  0  0
   -7.1056   -4.6839    0.0000 O   0  0  0  0  0  0  0  0  0  0  0  0
   -7.9146   -4.0961    0.0000 C   0  0  1  0  0  0  0  0  0  0  0  0
   -8.5024   -4.9051    0.0000 H   0  0  0  0  0  0  0  0  0  0  0  0
   -8.7236   -3.5083    0.0000 C   0  0  0  0  0  0  0  0  0  0  0  0
   -9.6371   -3.9151    0.0000 C   0  0  0  0  0  0  0  0  0  0  0  0
  -10.4462   -3.3273    0.0000 O   0  0  0  0  0  0  0  0  0  0  0  0
   -9.7417   -4.9096    0.0000 O   0  5  0  0  0  0  0  0  0  0  0  0
   -7.3268   -3.2871    0.0000 C   0  0  0  0  0  0  0  0  0  0  0  0
   -6.3323   -3.3916    0.0000 C   0  0  1  0  0  0  0  0  0  0  0  0
   -5.5233   -3.9794    0.0000 H   0  0  0  0  0  0  0  0  0  0  0  0
   -5.7445   -2.5826    0.0000 C   0  0  0  0  0  0  0  0  0  0  0  0
   -4.7500   -2.6871    0.0000 C   0  0  0  0  0  0  0  0  0  0  0  0
   -4.1622   -1.8781    0.0000 N   0  0  0  0  0  0  0  0  0  0  0  0
   -3.1622   -1.8781    0.0000 C   0  0  0  0  0  0  0  0  0  0  0  0
   -2.5744   -2.6871    0.0000 C   0  0  0  0  0  0  0  0  0  0  0  0
   -1.5799   -2.5826    0.0000 C   0  0  0  0  0  0  0  0  0  0  0  0
   -2.9811   -3.6007    0.0000 C   0  0  0  0  0  0  0  0  0  0  0  0
   -2.8532   -0.9271    0.0000 C   0  0  0  0  0  0  0  0  0  0  0  0
   -3.6622   -0.3393    0.0000 C   0  0  0  0  0  0  0  0  0  0  0  0
   -4.4712   -0.9271    0.0000 C   0  0  0  0  0  0  0  0  0  0  0  0
   -5.4223   -0.6180    0.0000 C   0  0  0  0  0  0  0  0  0  0  0  0
   -5.6302    0.3601    0.0000 C   0  0  0  0  0  0  0  0  0  0  0  0
   -6.5812    0.6691    0.0000 C   0  0  0  0  0  0  0  0  0  0  0  0
   -7.3244   -0.0000    0.0000 C   0  0  0  0  0  0  0  0  0  0  0  0
   -7.1165   -0.9781    0.0000 C   0  0  0  0  0  0  0  0  0  0  0  0
   -6.1654   -1.2872    0.0000 C   0  0  0  0  0  0  0  0  0  0  0  0
   -8.2754    0.3090    0.0000 F   0  0  0  0  0  0  0  0  0  0  0  0
   -3.6622    0.6607    0.0000 C   0  0  0  0  0  0  0  0  0  0  0  0
   -2.7962    1.1607    0.0000 C   0  0  0  0  0  0  0  0  0  0  0  0
   -2.7962    2.1607    0.0000 C   0  0  0  0  0  0  0  0  0  0  0  0
   -3.6622    2.6607    0.0000 C   0  0  0  0  0  0  0  0  0  0  0  0
   -4.5282    2.1607    0.0000 C   0  0  0  0  0  0  0  0  0  0  0  0
   -4.5282    1.1607    0.0000 C   0  0  0  0  0  0  0  0  0  0  0  0
   -1.9021   -0.6180    0.0000 C   0  0  0  0  0  0  0  0  0  0  0  0
   -1.6942    0.3601    0.0000 O   0  0  0  0  0  0  0  0  0  0  0  0
   -1.1590   -1.2872    0.0000 N   0  0  0  0  0  0  0  0  0  0  0  0
   -0.2079   -0.9781    0.0000 C   0  0  0  0  0  0  0  0  0  0  0  0
    0.5352   -1.6473    0.0000 C   0  0  0  0  0  0  0  0  0  0  0  0
    1.4863   -1.3383    0.0000 C   0  0  0  0  0  0  0  0  0  0  0  0
    1.6942   -0.3601    0.0000 C   0  0  0  0  0  0  0  0  0  0  0  0
    0.9511    0.3090    0.0000 C   0  0  0  0  0  0  0  0  0  0  0  0
    0.0000    0.0000    0.0000 C   0  0  0  0  0  0  0  0  0  0  0  0
   -6.4368   -4.3861    0.0000 O   0  0  0  0  0  0  0  0  0  0  0  0
  1  2  1  0  0  0  0
  2  3  1  0  0  0  0
  3  4  1  6  0  0  0
  3  5  1  0  0  0  0
  3  9  1  0  0  0  0
  5  6  1  0  0  0  0
  6  7  2  0  0  0  0
  6  8  1  0  0  0  0
  9 10  1  0  0  0  0
 10 11  1  6  0  0  0
 10 12  1  0  0  0  0
 10 44  1  0  0  0  0
 12 13  1  0  0  0  0
 13 14  1  0  0  0  0
 14 21  1  0  0  0  0
 14 15  1  0  0  0  0
 15 16  1  0  0  0  0
 15 19  2  0  0  0  0
 16 17  1  0  0  0  0
 16 18  1  0  0  0  0
 19 20  1  0  0  0  0
 19 35  1  0  0  0  0
 20 21  2  0  0  0  0
 20 29  1  0  0  0  0
 21 22  1  0  0  0  0
 22 27  1  0  0  0  0
 22 23  2  0  0  0  0
 23 24  1  0  0  0  0
 24 25  2  0  0  0  0
 25 26  1  0  0  0  0
 25 28  1  0  0  0  0
 26 27  2  0  0  0  0
 29 34  1  0  0  0  0
 29 30  2  0  0  0  0
 30 31  1  0  0  0  0
 31 32  2  0  0  0  0
 32 33  1  0  0  0  0
 33 34  2  0  0  0  0
 35 36  2  0  0  0  0
 35 37  1  0  0  0  0
 37 38  1  0  0  0  0
 38 43  1  0  0  0  0
 38 39  2  0  0  0  0
 39 40  1  0  0  0  0
 40 41  2  0  0  0  0
 41 42  1  0  0  0  0
 42 43  2  0  0  0  0
M  CHG  1   8  -1
M  END
>  <Supplier>
www.ambinter.com

>  <Ambinter_reference>
Amb17617195

>  <MW>
571.658

$$$$
Amb17619294
 OpenBabel08272101522D

 55 59  0  0  1  0  0  0  0  0999 V2000
   -1.1820   -3.1126    0.0000 O   0  0  0  0  0  0  0  0  0  0  0  0
   -0.7356   -2.2364    0.0000 C   0  0  0  0  0  0  0  0  0  0  0  0
    0.2464   -2.1849    0.0000 O   0  0  0  0  0  0  0  0  0  0  0  0
    0.7820   -3.0096    0.0000 C   0  0  0  0  0  0  0  0  0  0  0  0
    1.6581   -3.4561    0.0000 C   0  0  0  0  0  0  0  0  0  0  0  0
    1.6067   -2.4741    0.0000 C   0  0  0  0  0  0  0  0  0  0  0  0
    0.3356   -3.8858    0.0000 C   0  0  0  0  0  0  0  0  0  0  0  0
   -1.2711   -1.4117    0.0000 C   0  0  0  0  0  0  0  0  0  0  0  0
   -0.8247   -0.5356    0.0000 C   0  0  1  0  0  0  0  0  0  0  0  0
   -0.2891   -1.3603    0.0000 H   0  0  0  0  0  0  0  0  0  0  0  0
   -1.7008   -0.0891    0.0000 C   0  0  0  0  0  0  0  0  0  0  0  0
   -1.7523    0.8928    0.0000 C   0  0  1  0  0  0  0  0  0  0  0  0
   -1.6752    1.8732    0.0000 H   0  0  0  0  0  0  0  0  0  0  0  0
   -2.6875    0.5890    0.0000 C   0  0  0  0  0  0  0  0  0  0  0  0
   -3.4183    1.2470    0.0000 C   0  0  0  0  0  0  0  0  0  0  0  0
   -4.3535    0.9431    0.0000 N   0  0  0  0  0  0  0  0  0  0  0  0
   -4.6573    0.0079    0.0000 C   0  0  0  0  0  0  0  0  0  0  0  0
   -4.0794   -0.7876    0.0000 C   0  0  0  0  0  0  0  0  0  0  0  0
   -4.4793   -1.6860    0.0000 C   0  0  0  0  0  0  0  0  0  0  0  0
   -3.1014   -0.6849    0.0000 C   0  0  0  0  0  0  0  0  0  0  0  0
   -5.6407    0.0079    0.0000 C   0  0  0  0  0  0  0  0  0  0  0  0
   -5.9445    0.9431    0.0000 C   0  0  0  0  0  0  0  0  0  0  0  0
   -5.1490    1.5211    0.0000 C   0  0  0  0  0  0  0  0  0  0  0  0
   -5.1490    2.5044    0.0000 C   0  0  0  0  0  0  0  0  0  0  0  0
   -6.0006    2.9961    0.0000 C   0  0  0  0  0  0  0  0  0  0  0  0
   -6.0006    3.9794    0.0000 C   0  0  0  0  0  0  0  0  0  0  0  0
   -5.1490    4.4711    0.0000 C   0  0  0  0  0  0  0  0  0  0  0  0
   -4.2974    3.9794    0.0000 C   0  0  0  0  0  0  0  0  0  0  0  0
   -4.2974    2.9961    0.0000 C   0  0  0  0  0  0  0  0  0  0  0  0
   -5.1490    5.4544    0.0000 F   0  0  0  0  0  0  0  0  0  0  0  0
   -7.8150    1.5508    0.0000 C   0  0  0  0  0  0  0  0  0  0  0  0
   -8.5457    0.8928    0.0000 C   0  0  0  0  0  0  0  0  0  0  0  0
   -8.3413   -0.0690    0.0000 H   0  0  0  0  0  0  0  0  0  0  0  0
   -9.4809    1.1967    0.0000 C   0  0  0  0  0  0  0  0  0  0  0  0
  -10.2117    0.5387    0.0000 H   0  0  0  0  0  0  0  0  0  0  0  0
   -9.6854    2.1586    0.0000 C   0  0  0  0  0  0  0  0  0  0  0  0
   -8.9546    2.8165    0.0000 C   0  0  0  0  0  0  0  0  0  0  0  0
   -8.0194    2.5127    0.0000 C   0  0  0  0  0  0  0  0  0  0  0  0
   -7.2886    3.1706    0.0000 H   0  0  0  0  0  0  0  0  0  0  0  0
   -9.1591    3.7784    0.0000 H   0  0  0  0  0  0  0  0  0  0  0  0
  -10.6206    2.4624    0.0000 H   0  0  0  0  0  0  0  0  0  0  0  0
   -6.2187   -0.7876    0.0000 C   0  0  0  0  0  0  0  0  0  0  0  0
   -7.1966   -0.6849    0.0000 O   0  0  0  0  0  0  0  0  0  0  0  0
   -5.8187   -1.6860    0.0000 N   0  0  0  0  0  0  0  0  0  0  0  0
   -6.3967   -2.4815    0.0000 C   0  0  0  0  0  0  0  0  0  0  0  0
   -5.9967   -3.3798    0.0000 C   0  0  0  0  0  0  0  0  0  0  0  0
   -6.5747   -4.1754    0.0000 C   0  0  0  0  0  0  0  0  0  0  0  0
   -7.5527   -4.0726    0.0000 C   0  0  0  0  0  0  0  0  0  0  0  0
   -7.9526   -3.1742    0.0000 C   0  0  0  0  0  0  0  0  0  0  0  0
   -7.3746   -2.3787    0.0000 C   0  0  0  0  0  0  0  0  0  0  0  0
   -0.9276    1.4284    0.0000 O   0  0  0  0  0  0  0  0  0  0  0  0
   -0.0515    0.9820    0.0000 C   0  0  0  0  0  0  0  0  0  0  0  0
    0.0000   -0.0000    0.0000 O   0  0  0  0  0  0  0  0  0  0  0  0
    0.9305    1.0334    0.0000 C   0  0  0  0  0  0  0  0  0  0  0  0
    0.3950    1.8581    0.0000 C   0  0  0  0  0  0  0  0  0  0  0  0
  1  2  2  0  0  0  0
  2  3  1  0  0  0  0
  2  8  1  0  0  0  0
  3  4  1  0  0  0  0
  4  5  1  0  0  0  0
  4  6  1  0  0  0  0
  4  7  1  0  0  0  0
  8  9  1  0  0  0  0
  9 10  1  6  0  0  0
  9 53  1  0  0  0  0
  9 11  1  0  0  0  0
 11 12  1  0  0  0  0
 12 13  1  6  0  0  0
 12 14  1  0  0  0  0
 12 51  1  0  0  0  0
 14 15  1  0  0  0  0
 15 16  1  0  0  0  0
 16 23  1  0  0  0  0
 16 17  1  0  0  0  0
 17 18  1  0  0  0  0
 17 21  2  0  0  0  0
 18 19  1  0  0  0  0
 18 20  1  0  0  0  0
 21 22  1  0  0  0  0
 21 42  1  0  0  0  0
 22 23  2  0  0  0  0
 22 31  1  0  0  0  0
 23 24  1  0  0  0  0
 24 29  1  0  0  0  0
 24 25  2  0  0  0  0
 25 26  1  0  0  0  0
 26 27  2  0  0  0  0
 27 28  1  0  0  0  0
 27 30  1  0  0  0  0
 28 29  2  0  0  0  0
 31 38  1  0  0  0  0
 31 32  2  0  0  0  0
 32 33  1  0  0  0  0
 32 34  1  0  0  0  0
 34 35  1  0  0  0  0
 34 36  2  0  0  0  0
 36 37  1  0  0  0  0
 36 41  1  0  0  0  0
 37 38  2  0  0  0  0
 37 40  1  0  0  0  0
 38 39  1  0  0  0  0
 42 43  2  0  0  0  0
 42 44  1  0  0  0  0
 44 45  1  0  0  0  0
 45 50  1  0  0  0  0
 45 46  2  0  0  0  0
 46 47  1  0  0  0  0
 47 48  2  0  0  0  0
 48 49  1  0  0  0  0
 49 50  2  0  0  0  0
 51 52  1  0  0  0  0
 52 53  1  0  0  0  0
 52 54  1  0  0  0  0
 52 55  1  0  0  0  0
M  ISO  5  33   2  35   2  39   2  40   2  41   2
M  END
>  <Supplier>
www.ambinter.com

>  <Ambinter_reference>
Amb17619294

>  <MW>
659.841

$$$$
Amb19130786
 OpenBabel08272101522D

 58 63  0  0  1  0  0  0  0  0999 V2000
    0.1109   -3.8966    0.0000 C   0  0  0  0  0  0  0  0  0  0  0  0
   -0.5184   -3.1195    0.0000 C   0  0  0  0  0  0  0  0  0  0  0  0
    0.4693   -2.9631    0.0000 C   0  0  0  0  0  0  0  0  0  0  0  0
   -1.2955   -3.7488    0.0000 C   0  0  0  0  0  0  0  0  0  0  0  0
   -0.6748   -2.1318    0.0000 O   0  0  0  0  0  0  0  0  0  0  0  0
   -1.6084   -1.7734    0.0000 C   0  0  0  0  0  0  0  0  0  0  0  0
   -2.3855   -2.4028    0.0000 O   0  0  0  0  0  0  0  0  0  0  0  0
   -1.7648   -0.7858    0.0000 C   0  0  0  0  0  0  0  0  0  0  0  0
   -0.9877   -0.1564    0.0000 C   0  0  2  0  0  0  0  0  0  0  0  0
   -0.8313   -1.1441    0.0000 H   0  0  0  0  0  0  0  0  0  0  0  0
   -1.6170    0.6207    0.0000 C   0  0  0  0  0  0  0  0  0  0  0  0
   -1.2586    1.5543    0.0000 C   0  0  2  0  0  0  0  0  0  0  0  0
   -0.7815    2.4331    0.0000 H   0  0  0  0  0  0  0  0  0  0  0  0
   -2.2532    1.6588    0.0000 C   0  0  0  0  0  0  0  0  0  0  0  0
   -2.6599    2.5724    0.0000 C   0  0  0  0  0  0  0  0  0  0  0  0
   -3.6544    2.6769    0.0000 N   0  0  0  0  0  0  0  0  0  0  0  0
   -4.3236    1.9337    0.0000 C   0  0  0  0  0  0  0  0  0  0  0  0
   -4.1156    0.9556    0.0000 C   0  0  0  0  0  0  0  0  0  0  0  0
   -4.8588    0.2865    0.0000 C   0  0  0  0  0  0  0  0  0  0  0  0
   -3.1646    0.6466    0.0000 C   0  0  0  0  0  0  0  0  0  0  0  0
   -5.2371    2.3405    0.0000 C   0  0  0  0  0  0  0  0  0  0  0  0
   -5.1326    3.3350    0.0000 C   0  0  0  0  0  0  0  0  0  0  0  0
   -5.8757    4.0041    0.0000 C   0  0  0  0  0  0  0  0  0  0  0  0
   -6.8268    3.6951    0.0000 C   0  0  0  0  0  0  0  0  0  0  0  0
   -7.5699    4.3643    0.0000 C   0  0  0  0  0  0  0  0  0  0  0  0
   -7.3620    5.3424    0.0000 C   0  0  0  0  0  0  0  0  0  0  0  0
   -6.4109    5.6514    0.0000 C   0  0  0  0  0  0  0  0  0  0  0  0
   -5.6678    4.9823    0.0000 C   0  0  0  0  0  0  0  0  0  0  0  0
   -4.1544    3.5429    0.0000 C   0  0  0  0  0  0  0  0  0  0  0  0
   -3.7477    4.4565    0.0000 C   0  0  0  0  0  0  0  0  0  0  0  0
   -4.3355    5.2655    0.0000 C   0  0  0  0  0  0  0  0  0  0  0  0
   -3.9287    6.1790    0.0000 C   0  0  0  0  0  0  0  0  0  0  0  0
   -2.9342    6.2836    0.0000 C   0  0  0  0  0  0  0  0  0  0  0  0
   -2.5275    7.1971    0.0000 F   0  0  0  0  0  0  0  0  0  0  0  0
   -2.3464    5.4745    0.0000 C   0  0  0  0  0  0  0  0  0  0  0  0
   -2.7532    4.5610    0.0000 C   0  0  0  0  0  0  0  0  0  0  0  0
   -6.1031    1.8405    0.0000 C   0  0  0  0  0  0  0  0  0  0  0  0
   -6.9691    2.3405    0.0000 O   0  0  0  0  0  0  0  0  0  0  0  0
   -6.1031    0.8405    0.0000 N   0  0  0  0  0  0  0  0  0  0  0  0
   -6.9691    0.3405    0.0000 C   0  0  0  0  0  0  0  0  0  0  0  0
   -6.9691   -0.6595    0.0000 C   0  0  0  0  0  0  0  0  0  0  0  0
   -7.8352   -1.1595    0.0000 C   0  0  0  0  0  0  0  0  0  0  0  0
   -8.7012   -0.6595    0.0000 C   0  0  0  0  0  0  0  0  0  0  0  0
   -8.7012    0.3405    0.0000 C   0  0  0  0  0  0  0  0  0  0  0  0
   -7.8352    0.8405    0.0000 C   0  0  0  0  0  0  0  0  0  0  0  0
   -7.8352    1.8405    0.0000 O   0  0  0  0  0  0  0  0  0  0  0  0
   -8.7012    2.3405    0.0000 C   0  0  0  0  0  0  0  0  0  0  0  0
   -8.7012    3.3405    0.0000 C   0  0  0  0  0  0  0  0  0  0  0  0
   -9.5672    3.8405    0.0000 C   0  0  0  0  0  0  0  0  0  0  0  0
   -9.5672    4.8405    0.0000 C   0  0  0  0  0  0  0  0  0  0  0  0
   -8.7012    5.3405    0.0000 C   0  0  0  0  0  0  0  0  0  0  0  0
   -7.8352    4.8405    0.0000 C   0  0  0  0  0  0  0  0  0  0  0  0
   -7.8352    3.8405    0.0000 C   0  0  0  0  0  0  0  0  0  0  0  0
   -0.2710    1.7107    0.0000 O   0  0  0  0  0  0  0  0  0  0  0  0
    0.3584    0.9336    0.0000 C   0  0  0  0  0  0  0  0  0  0  0  0
    1.2919    0.5752    0.0000 C   0  0  0  0  0  0  0  0  0  0  0  0
    1.1355    1.5629    0.0000 C   0  0  0  0  0  0  0  0  0  0  0  0
    0.0000   -0.0000    0.0000 O   0  0  0  0  0  0  0  0  0  0  0  0
  1  2  1  0  0  0  0
  2  3  1  0  0  0  0
  2  4  1  0  0  0  0
  2  5  1  0  0  0  0
  5  6  1  0  0  0  0
  6  7  2  0  0  0  0
  6  8  1  0  0  0  0
  8  9  1  0  0  0  0
  9 10  1  1  0  0  0
  9 58  1  0  0  0  0
  9 11  1  0  0  0  0
 11 12  1  0  0  0  0
 12 13  1  1  0  0  0
 12 14  1  0  0  0  0
 12 54  1  0  0  0  0
 14 15  1  0  0  0  0
 15 16  1  0  0  0  0
 16 29  1  0  0  0  0
 16 17  1  0  0  0  0
 17 18  1  0  0  0  0
 17 21  2  0  0  0  0
 18 19  1  0  0  0  0
 18 20  1  0  0  0  0
 21 22  1  0  0  0  0
 21 37  1  0  0  0  0
 22 23  1  0  0  0  0
 22 29  2  0  0  0  0
 23 28  1  0  0  0  0
 23 24  2  0  0  0  0
 24 25  1  0  0  0  0
 25 26  2  0  0  0  0
 26 27  1  0  0  0  0
 27 28  2  0  0  0  0
 29 30  1  0  0  0  0
 30 36  1  0  0  0  0
 30 31  2  0  0  0  0
 31 32  1  0  0  0  0
 32 33  2  0  0  0  0
 33 34  1  0  0  0  0
 33 35  1  0  0  0  0
 35 36  2  0  0  0  0
 37 38  2  0  0  0  0
 37 39  1  0  0  0  0
 39 40  1  0  0  0  0
 40 45  1  0  0  0  0
 40 41  2  0  0  0  0
 41 42  1  0  0  0  0
 42 43  2  0  0  0  0
 43 44  1  0  0  0  0
 44 45  2  0  0  0  0
 45 46  1  0  0  0  0
 46 47  1  0  0  0  0
 47 48  1  0  0  0  0
 48 53  1  0  0  0  0
 48 49  2  0  0  0  0
 49 50  1  0  0  0  0
 50 51  2  0  0  0  0
 51 52  1  0  0  0  0
 52 53  2  0  0  0  0
 54 55  1  0  0  0  0
 55 56  1  0  0  0  0
 55 57  1  0  0  0  0
 55 58  1  0  0  0  0
M  END
>  <Supplier>
www.ambinter.com

>  <Ambinter_reference>
Amb19130786

>  <MW>
760.932

$$$$
Amb19130787
 OpenBabel08272101522D

 58 63  0  0  1  0  0  0  0  0999 V2000
    3.4693   -2.8094    0.0000 C   0  0  0  0  0  0  0  0  0  0  0  0
    2.5357   -3.1677    0.0000 C   0  0  0  0  0  0  0  0  0  0  0  0
    2.6921   -2.1800    0.0000 C   0  0  0  0  0  0  0  0  0  0  0  0
    2.8940   -4.1013    0.0000 C   0  0  0  0  0  0  0  0  0  0  0  0
    1.5480   -3.0113    0.0000 O   0  0  0  0  0  0  0  0  0  0  0  0
    1.1896   -2.0777    0.0000 C   0  0  0  0  0  0  0  0  0  0  0  0
    1.8189   -1.3006    0.0000 O   0  0  0  0  0  0  0  0  0  0  0  0
    0.2019   -1.9213    0.0000 C   0  0  0  0  0  0  0  0  0  0  0  0
   -0.1564   -0.9877    0.0000 C   0  0  2  0  0  0  0  0  0  0  0  0
    0.8313   -1.1441    0.0000 H   0  0  0  0  0  0  0  0  0  0  0  0
   -1.0900   -1.3461    0.0000 C   0  0  0  0  0  0  0  0  0  0  0  0
   -1.8672   -0.7167    0.0000 C   0  0  2  0  0  0  0  0  0  0  0  0
   -2.5555    0.0086    0.0000 H   0  0  0  0  0  0  0  0  0  0  0  0
   -2.2739   -1.6303    0.0000 C   0  0  0  0  0  0  0  0  0  0  0  0
   -3.2684   -1.7348    0.0000 C   0  0  0  0  0  0  0  0  0  0  0  0
   -3.6752   -2.6484    0.0000 N   0  0  0  0  0  0  0  0  0  0  0  0
   -4.6533   -2.8563    0.0000 C   0  0  0  0  0  0  0  0  0  0  0  0
   -5.3964   -2.1871    0.0000 C   0  0  0  0  0  0  0  0  0  0  0  0
   -6.3475   -2.4962    0.0000 C   0  0  0  0  0  0  0  0  0  0  0  0
   -5.1885   -1.2090    0.0000 C   0  0  0  0  0  0  0  0  0  0  0  0
   -4.7578   -3.8508    0.0000 C   0  0  0  0  0  0  0  0  0  0  0  0
   -3.8443   -4.2575    0.0000 C   0  0  0  0  0  0  0  0  0  0  0  0
   -3.6364   -5.2357    0.0000 C   0  0  0  0  0  0  0  0  0  0  0  0
   -4.3795   -5.9048    0.0000 C   0  0  0  0  0  0  0  0  0  0  0  0
   -4.1716   -6.8830    0.0000 C   0  0  0  0  0  0  0  0  0  0  0  0
   -3.2206   -7.1920    0.0000 C   0  0  0  0  0  0  0  0  0  0  0  0
   -2.4774   -6.5228    0.0000 C   0  0  0  0  0  0  0  0  0  0  0  0
   -2.6853   -5.5447    0.0000 C   0  0  0  0  0  0  0  0  0  0  0  0
   -3.1752   -3.5144    0.0000 C   0  0  0  0  0  0  0  0  0  0  0  0
   -2.1806   -3.6189    0.0000 C   0  0  0  0  0  0  0  0  0  0  0  0
   -1.7739   -4.5325    0.0000 C   0  0  0  0  0  0  0  0  0  0  0  0
   -0.7794   -4.6370    0.0000 C   0  0  0  0  0  0  0  0  0  0  0  0
   -0.1916   -3.8280    0.0000 C   0  0  0  0  0  0  0  0  0  0  0  0
    0.8029   -3.9325    0.0000 F   0  0  0  0  0  0  0  0  0  0  0  0
   -0.5983   -2.9144    0.0000 C   0  0  0  0  0  0  0  0  0  0  0  0
   -1.5928   -2.8099    0.0000 C   0  0  0  0  0  0  0  0  0  0  0  0
   -5.6239   -4.3508    0.0000 C   0  0  0  0  0  0  0  0  0  0  0  0
   -5.6239   -5.3508    0.0000 O   0  0  0  0  0  0  0  0  0  0  0  0
   -6.4899   -3.8508    0.0000 N   0  0  0  0  0  0  0  0  0  0  0  0
   -7.3559   -4.3508    0.0000 C   0  0  0  0  0  0  0  0  0  0  0  0
   -7.3559   -5.3508    0.0000 C   0  0  0  0  0  0  0  0  0  0  0  0
   -8.2219   -5.8508    0.0000 C   0  0  0  0  0  0  0  0  0  0  0  0
   -9.0880   -5.3508    0.0000 C   0  0  0  0  0  0  0  0  0  0  0  0
   -9.0880   -4.3508    0.0000 C   0  0  0  0  0  0  0  0  0  0  0  0
   -8.2219   -3.8508    0.0000 C   0  0  0  0  0  0  0  0  0  0  0  0
   -9.9540   -5.8508    0.0000 O   0  0  0  0  0  0  0  0  0  0  0  0
  -10.8200   -5.3508    0.0000 C   0  0  0  0  0  0  0  0  0  0  0  0
  -10.8200   -4.3508    0.0000 C   0  0  0  0  0  0  0  0  0  0  0  0
  -11.6860   -3.8508    0.0000 C   0  0  0  0  0  0  0  0  0  0  0  0
  -11.6860   -2.8508    0.0000 C   0  0  0  0  0  0  0  0  0  0  0  0
  -10.8200   -2.3508    0.0000 C   0  0  0  0  0  0  0  0  0  0  0  0
   -9.9540   -2.8508    0.0000 C   0  0  0  0  0  0  0  0  0  0  0  0
   -9.9540   -3.8508    0.0000 C   0  0  0  0  0  0  0  0  0  0  0  0
   -1.7107    0.2710    0.0000 O   0  0  0  0  0  0  0  0  0  0  0  0
   -0.7771    0.6293    0.0000 C   0  0  0  0  0  0  0  0  0  0  0  0
   -0.1478    1.4065    0.0000 C   0  0  0  0  0  0  0  0  0  0  0  0
   -1.1355    1.5629    0.0000 C   0  0  0  0  0  0  0  0  0  0  0  0
   -0.0000   -0.0000    0.0000 O   0  0  0  0  0  0  0  0  0  0  0  0
  1  2  1  0  0  0  0
  2  3  1  0  0  0  0
  2  4  1  0  0  0  0
  2  5  1  0  0  0  0
  5  6  1  0  0  0  0
  6  7  2  0  0  0  0
  6  8  1  0  0  0  0
  8  9  1  0  0  0  0
  9 10  1  1  0  0  0
  9 58  1  0  0  0  0
  9 11  1  0  0  0  0
 11 12  1  0  0  0  0
 12 13  1  1  0  0  0
 12 14  1  0  0  0  0
 12 54  1  0  0  0  0
 14 15  1  0  0  0  0
 15 16  1  0  0  0  0
 16 29  1  0  0  0  0
 16 17  1  0  0  0  0
 17 18  1  0  0  0  0
 17 21  2  0  0  0  0
 18 19  1  0  0  0  0
 18 20  1  0  0  0  0
 21 22  1  0  0  0  0
 21 37  1  0  0  0  0
 22 23  1  0  0  0  0
 22 29  2  0  0  0  0
 23 28  1  0  0  0  0
 23 24  2  0  0  0  0
 24 25  1  0  0  0  0
 25 26  2  0  0  0  0
 26 27  1  0  0  0  0
 27 28  2  0  0  0  0
 29 30  1  0  0  0  0
 30 36  1  0  0  0  0
 30 31  2  0  0  0  0
 31 32  1  0  0  0  0
 32 33  2  0  0  0  0
 33 34  1  0  0  0  0
 33 35  1  0  0  0  0
 35 36  2  0  0  0  0
 37 38  2  0  0  0  0
 37 39  1  0  0  0  0
 39 40  1  0  0  0  0
 40 45  1  0  0  0  0
 40 41  2  0  0  0  0
 41 42  1  0  0  0  0
 42 43  2  0  0  0  0
 43 44  1  0  0  0  0
 43 46  1  0  0  0  0
 44 45  2  0  0  0  0
 46 47  1  0  0  0  0
 47 48  1  0  0  0  0
 48 53  1  0  0  0  0
 48 49  2  0  0  0  0
 49 50  1  0  0  0  0
 50 51  2  0  0  0  0
 51 52  1  0  0  0  0
 52 53  2  0  0  0  0
 54 55  1  0  0  0  0
 55 56  1  0  0  0  0
 55 57  1  0  0  0  0
 55 58  1  0  0  0  0
M  END
>  <Supplier>
www.ambinter.com

>  <Ambinter_reference>
Amb19130787

>  <MW>
760.932

$$$$
Amb19131433
 OpenBabel08272101522D

 49 53  0  0  1  0  0  0  0  0999 V2000
    0.1109   -3.8966    0.0000 C   0  0  0  0  0  0  0  0  0  0  0  0
   -0.5184   -3.1195    0.0000 C   0  0  0  0  0  0  0  0  0  0  0  0
    0.4693   -2.9631    0.0000 C   0  0  0  0  0  0  0  0  0  0  0  0
   -1.2955   -3.7488    0.0000 C   0  0  0  0  0  0  0  0  0  0  0  0
   -0.6748   -2.1318    0.0000 O   0  0  0  0  0  0  0  0  0  0  0  0
   -1.6084   -1.7734    0.0000 C   0  0  0  0  0  0  0  0  0  0  0  0
   -2.3855   -2.4028    0.0000 O   0  0  0  0  0  0  0  0  0  0  0  0
   -1.7648   -0.7858    0.0000 C   0  0  0  0  0  0  0  0  0  0  0  0
   -0.9877   -0.1564    0.0000 C   0  0  2  0  0  0  0  0  0  0  0  0
   -0.8313   -1.1441    0.0000 H   0  0  0  0  0  0  0  0  0  0  0  0
   -1.6170    0.6207    0.0000 C   0  0  0  0  0  0  0  0  0  0  0  0
   -1.2586    1.5543    0.0000 C   0  0  2  0  0  0  0  0  0  0  0  0
   -0.7815    2.4331    0.0000 H   0  0  0  0  0  0  0  0  0  0  0  0
   -2.2532    1.6588    0.0000 C   0  0  0  0  0  0  0  0  0  0  0  0
   -2.6599    2.5724    0.0000 C   0  0  0  0  0  0  0  0  0  0  0  0
   -3.6544    2.6769    0.0000 N   0  0  0  0  0  0  0  0  0  0  0  0
   -4.3236    1.9337    0.0000 C   0  0  0  0  0  0  0  0  0  0  0  0
   -4.1156    0.9556    0.0000 C   0  0  0  0  0  0  0  0  0  0  0  0
   -4.8588    0.2865    0.0000 C   0  0  0  0  0  0  0  0  0  0  0  0
   -3.1646    0.6466    0.0000 C   0  0  0  0  0  0  0  0  0  0  0  0
   -5.2371    2.3405    0.0000 C   0  0  0  0  0  0  0  0  0  0  0  0
   -5.1326    3.3350    0.0000 C   0  0  0  0  0  0  0  0  0  0  0  0
   -5.8757    4.0041    0.0000 C   0  0  0  0  0  0  0  0  0  0  0  0
   -6.8268    3.6951    0.0000 C   0  0  0  0  0  0  0  0  0  0  0  0
   -7.5699    4.3643    0.0000 C   0  0  0  0  0  0  0  0  0  0  0  0
   -7.3620    5.3424    0.0000 C   0  0  0  0  0  0  0  0  0  0  0  0
   -6.4109    5.6514    0.0000 C   0  0  0  0  0  0  0  0  0  0  0  0
   -5.6678    4.9823    0.0000 C   0  0  0  0  0  0  0  0  0  0  0  0
   -4.1544    3.5429    0.0000 C   0  0  0  0  0  0  0  0  0  0  0  0
   -3.7477    4.4565    0.0000 C   0  0  0  0  0  0  0  0  0  0  0  0
   -4.3355    5.2655    0.0000 C   0  0  0  0  0  0  0  0  0  0  0  0
   -3.9287    6.1790    0.0000 C   0  0  0  0  0  0  0  0  0  0  0  0
   -2.9342    6.2836    0.0000 C   0  0  0  0  0  0  0  0  0  0  0  0
   -2.3464    5.4745    0.0000 C   0  0  0  0  0  0  0  0  0  0  0  0
   -2.7532    4.5610    0.0000 C   0  0  0  0  0  0  0  0  0  0  0  0
   -6.1031    1.8405    0.0000 C   0  0  0  0  0  0  0  0  0  0  0  0
   -6.9691    2.3405    0.0000 O   0  0  0  0  0  0  0  0  0  0  0  0
   -6.1031    0.8405    0.0000 N   0  0  0  0  0  0  0  0  0  0  0  0
   -6.9691    0.3405    0.0000 C   0  0  0  0  0  0  0  0  0  0  0  0
   -6.9691   -0.6595    0.0000 C   0  0  0  0  0  0  0  0  0  0  0  0
   -7.8352   -1.1595    0.0000 C   0  0  0  0  0  0  0  0  0  0  0  0
   -8.7012   -0.6595    0.0000 C   0  0  0  0  0  0  0  0  0  0  0  0
   -8.7012    0.3405    0.0000 C   0  0  0  0  0  0  0  0  0  0  0  0
   -7.8352    0.8405    0.0000 C   0  0  0  0  0  0  0  0  0  0  0  0
   -0.2710    1.7107    0.0000 O   0  0  0  0  0  0  0  0  0  0  0  0
    0.3584    0.9336    0.0000 C   0  0  0  0  0  0  0  0  0  0  0  0
    1.2919    0.5752    0.0000 C   0  0  0  0  0  0  0  0  0  0  0  0
    1.1355    1.5629    0.0000 C   0  0  0  0  0  0  0  0  0  0  0  0
    0.0000   -0.0000    0.0000 O   0  0  0  0  0  0  0  0  0  0  0  0
  1  2  1  0  0  0  0
  2  3  1  0  0  0  0
  2  4  1  0  0  0  0
  2  5  1  0  0  0  0
  5  6  1  0  0  0  0
  6  7  2  0  0  0  0
  6  8  1  0  0  0  0
  8  9  1  0  0  0  0
  9 10  1  1  0  0  0
  9 49  1  0  0  0  0
  9 11  1  0  0  0  0
 11 12  1  0  0  0  0
 12 13  1  1  0  0  0
 12 14  1  0  0  0  0
 12 45  1  0  0  0  0
 14 15  1  0  0  0  0
 15 16  1  0  0  0  0
 16 29  1  0  0  0  0
 16 17  1  0  0  0  0
 17 18  1  0  0  0  0
 17 21  2  0  0  0  0
 18 19  1  0  0  0  0
 18 20  1  0  0  0  0
 21 22  1  0  0  0  0
 21 36  1  0  0  0  0
 22 23  1  0  0  0  0
 22 29  2  0  0  0  0
 23 28  1  0  0  0  0
 23 24  2  0  0  0  0
 24 25  1  0  0  0  0
 25 26  2  0  0  0  0
 26 27  1  0  0  0  0
 27 28  2  0  0  0  0
 29 30  1  0  0  0  0
 30 35  1  0  0  0  0
 30 31  2  0  0  0  0
 31 32  1  0  0  0  0
 32 33  2  0  0  0  0
 33 34  1  0  0  0  0
 34 35  2  0  0  0  0
 36 37  2  0  0  0  0
 36 38  1  0  0  0  0
 38 39  1  0  0  0  0
 39 44  1  0  0  0  0
 39 40  2  0  0  0  0
 40 41  1  0  0  0  0
 41 42  2  0  0  0  0
 42 43  1  0  0  0  0
 43 44  2  0  0  0  0
 45 46  1  0  0  0  0
 46 47  1  0  0  0  0
 46 48  1  0  0  0  0
 46 49  1  0  0  0  0
M  END
>  <Supplier>
www.ambinter.com

>  <Ambinter_reference>
Amb19131433

>  <MW>
636.82

$$$$
Amb19132358
 OpenBabel08272101522D

 51 55  0  0  1  0  0  0  0  0999 V2000
    0.1109   -3.8966    0.0000 C   0  0  0  0  0  0  0  0  0  0  0  0
   -0.5184   -3.1195    0.0000 C   0  0  0  0  0  0  0  0  0  0  0  0
    0.4693   -2.9631    0.0000 C   0  0  0  0  0  0  0  0  0  0  0  0
   -1.2955   -3.7488    0.0000 C   0  0  0  0  0  0  0  0  0  0  0  0
   -0.6748   -2.1318    0.0000 O   0  0  0  0  0  0  0  0  0  0  0  0
   -1.6084   -1.7734    0.0000 C   0  0  0  0  0  0  0  0  0  0  0  0
   -2.3855   -2.4028    0.0000 O   0  0  0  0  0  0  0  0  0  0  0  0
   -1.7648   -0.7858    0.0000 C   0  0  0  0  0  0  0  0  0  0  0  0
   -0.9877   -0.1564    0.0000 C   0  0  2  0  0  0  0  0  0  0  0  0
   -0.8313   -1.1441    0.0000 H   0  0  0  0  0  0  0  0  0  0  0  0
   -1.6170    0.6207    0.0000 C   0  0  0  0  0  0  0  0  0  0  0  0
   -1.2586    1.5543    0.0000 C   0  0  2  0  0  0  0  0  0  0  0  0
   -0.7815    2.4331    0.0000 H   0  0  0  0  0  0  0  0  0  0  0  0
   -2.2532    1.6588    0.0000 C   0  0  0  0  0  0  0  0  0  0  0  0
   -2.6599    2.5724    0.0000 C   0  0  0  0  0  0  0  0  0  0  0  0
   -3.6544    2.6769    0.0000 N   0  0  0  0  0  0  0  0  0  0  0  0
   -4.3236    1.9337    0.0000 C   0  0  0  0  0  0  0  0  0  0  0  0
   -4.1156    0.9556    0.0000 C   0  0  0  0  0  0  0  0  0  0  0  0
   -4.8588    0.2865    0.0000 C   0  0  0  0  0  0  0  0  0  0  0  0
   -3.1646    0.6466    0.0000 C   0  0  0  0  0  0  0  0  0  0  0  0
   -5.2371    2.3405    0.0000 C   0  0  0  0  0  0  0  0  0  0  0  0
   -5.1326    3.3350    0.0000 C   0  0  0  0  0  0  0  0  0  0  0  0
   -5.8757    4.0041    0.0000 C   0  0  0  0  0  0  0  0  0  0  0  0
   -6.8268    3.6951    0.0000 C   0  0  0  0  0  0  0  0  0  0  0  0
   -7.5699    4.3643    0.0000 C   0  0  0  0  0  0  0  0  0  0  0  0
   -7.3620    5.3424    0.0000 C   0  0  0  0  0  0  0  0  0  0  0  0
   -6.4109    5.6514    0.0000 C   0  0  0  0  0  0  0  0  0  0  0  0
   -5.6678    4.9823    0.0000 C   0  0  0  0  0  0  0  0  0  0  0  0
   -4.1544    3.5429    0.0000 C   0  0  0  0  0  0  0  0  0  0  0  0
   -3.7477    4.4565    0.0000 C   0  0  0  0  0  0  0  0  0  0  0  0
   -4.3355    5.2655    0.0000 C   0  0  0  0  0  0  0  0  0  0  0  0
   -3.9287    6.1790    0.0000 C   0  0  0  0  0  0  0  0  0  0  0  0
   -2.9342    6.2836    0.0000 C   0  0  0  0  0  0  0  0  0  0  0  0
   -2.5275    7.1971    0.0000 F   0  0  0  0  0  0  0  0  0  0  0  0
   -2.3464    5.4745    0.0000 C   0  0  0  0  0  0  0  0  0  0  0  0
   -2.7532    4.5610    0.0000 C   0  0  0  0  0  0  0  0  0  0  0  0
   -6.1031    1.8405    0.0000 C   0  0  0  0  0  0  0  0  0  0  0  0
   -6.9691    2.3405    0.0000 O   0  0  0  0  0  0  0  0  0  0  0  0
   -6.1031    0.8405    0.0000 N   0  0  0  0  0  0  0  0  0  0  0  0
   -6.9691    0.3405    0.0000 C   0  0  0  0  0  0  0  0  0  0  0  0
   -6.9691   -0.6595    0.0000 C   0  0  0  0  0  0  0  0  0  0  0  0
   -7.8352   -1.1595    0.0000 C   0  0  0  0  0  0  0  0  0  0  0  0
   -8.7012   -0.6595    0.0000 C   0  0  0  0  0  0  0  0  0  0  0  0
   -8.7012    0.3405    0.0000 C   0  0  0  0  0  0  0  0  0  0  0  0
   -7.8352    0.8405    0.0000 C   0  0  0  0  0  0  0  0  0  0  0  0
   -7.8352    1.8405    0.0000 O   0  0  0  0  0  0  0  0  0  0  0  0
   -0.2710    1.7107    0.0000 O   0  0  0  0  0  0  0  0  0  0  0  0
    0.3584    0.9336    0.0000 C   0  0  0  0  0  0  0  0  0  0  0  0
    1.2919    0.5752    0.0000 C   0  0  0  0  0  0  0  0  0  0  0  0
    1.1355    1.5629    0.0000 C   0  0  0  0  0  0  0  0  0  0  0  0
    0.0000   -0.0000    0.0000 O   0  0  0  0  0  0  0  0  0  0  0  0
  1  2  1  0  0  0  0
  2  3  1  0  0  0  0
  2  4  1  0  0  0  0
  2  5  1  0  0  0  0
  5  6  1  0  0  0  0
  6  7  2  0  0  0  0
  6  8  1  0  0  0  0
  8  9  1  0  0  0  0
  9 10  1  1  0  0  0
  9 51  1  0  0  0  0
  9 11  1  0  0  0  0
 11 12  1  0  0  0  0
 12 13  1  1  0  0  0
 12 14  1  0  0  0  0
 12 47  1  0  0  0  0
 14 15  1  0  0  0  0
 15 16  1  0  0  0  0
 16 29  1  0  0  0  0
 16 17  1  0  0  0  0
 17 18  1  0  0  0  0
 17 21  2  0  0  0  0
 18 19  1  0  0  0  0
 18 20  1  0  0  0  0
 21 22  1  0  0  0  0
 21 37  1  0  0  0  0
 22 23  1  0  0  0  0
 22 29  2  0  0  0  0
 23 28  1  0  0  0  0
 23 24  2  0  0  0  0
 24 25  1  0  0  0  0
 25 26  2  0  0  0  0
 26 27  1  0  0  0  0
 27 28  2  0  0  0  0
 29 30  1  0  0  0  0
 30 36  1  0  0  0  0
 30 31  2  0  0  0  0
 31 32  1  0  0  0  0
 32 33  2  0  0  0  0
 33 34  1  0  0  0  0
 33 35  1  0  0  0  0
 35 36  2  0  0  0  0
 37 38  2  0  0  0  0
 37 39  1  0  0  0  0
 39 40  1  0  0  0  0
 40 45  1  0  0  0  0
 40 41  2  0  0  0  0
 41 42  1  0  0  0  0
 42 43  2  0  0  0  0
 43 44  1  0  0  0  0
 44 45  2  0  0  0  0
 45 46  1  0  0  0  0
 47 48  1  0  0  0  0
 48 49  1  0  0  0  0
 48 50  1  0  0  0  0
 48 51  1  0  0  0  0
M  END
>  <Supplier>
www.ambinter.com

>  <Ambinter_reference>
Amb19132358

>  <MW>
670.809

$$$$
Amb19132359
 OpenBabel08272101522D

 51 55  0  0  1  0  0  0  0  0999 V2000
    0.1109   -3.8966    0.0000 C   0  0  0  0  0  0  0  0  0  0  0  0
   -0.5184   -3.1195    0.0000 C   0  0  0  0  0  0  0  0  0  0  0  0
    0.4693   -2.9631    0.0000 C   0  0  0  0  0  0  0  0  0  0  0  0
   -1.2955   -3.7488    0.0000 C   0  0  0  0  0  0  0  0  0  0  0  0
   -0.6748   -2.1318    0.0000 O   0  0  0  0  0  0  0  0  0  0  0  0
   -1.6084   -1.7734    0.0000 C   0  0  0  0  0  0  0  0  0  0  0  0
   -2.3855   -2.4028    0.0000 O   0  0  0  0  0  0  0  0  0  0  0  0
   -1.7648   -0.7858    0.0000 C   0  0  0  0  0  0  0  0  0  0  0  0
   -0.9877   -0.1564    0.0000 C   0  0  2  0  0  0  0  0  0  0  0  0
   -0.8313   -1.1441    0.0000 H   0  0  0  0  0  0  0  0  0  0  0  0
   -1.6170    0.6207    0.0000 C   0  0  0  0  0  0  0  0  0  0  0  0
   -1.2586    1.5543    0.0000 C   0  0  2  0  0  0  0  0  0  0  0  0
   -0.7815    2.4331    0.0000 H   0  0  0  0  0  0  0  0  0  0  0  0
   -2.2532    1.6588    0.0000 C   0  0  0  0  0  0  0  0  0  0  0  0
   -2.6599    2.5724    0.0000 C   0  0  0  0  0  0  0  0  0  0  0  0
   -3.6544    2.6769    0.0000 N   0  0  0  0  0  0  0  0  0  0  0  0
   -4.3236    1.9337    0.0000 C   0  0  0  0  0  0  0  0  0  0  0  0
   -4.1156    0.9556    0.0000 C   0  0  0  0  0  0  0  0  0  0  0  0
   -4.8588    0.2865    0.0000 C   0  0  0  0  0  0  0  0  0  0  0  0
   -3.1646    0.6466    0.0000 C   0  0  0  0  0  0  0  0  0  0  0  0
   -5.2371    2.3405    0.0000 C   0  0  0  0  0  0  0  0  0  0  0  0
   -5.1326    3.3350    0.0000 C   0  0  0  0  0  0  0  0  0  0  0  0
   -5.8757    4.0041    0.0000 C   0  0  0  0  0  0  0  0  0  0  0  0
   -6.8268    3.6951    0.0000 C   0  0  0  0  0  0  0  0  0  0  0  0
   -7.5699    4.3643    0.0000 C   0  0  0  0  0  0  0  0  0  0  0  0
   -7.3620    5.3424    0.0000 C   0  0  0  0  0  0  0  0  0  0  0  0
   -6.4109    5.6514    0.0000 C   0  0  0  0  0  0  0  0  0  0  0  0
   -5.6678    4.9823    0.0000 C   0  0  0  0  0  0  0  0  0  0  0  0
   -4.1544    3.5429    0.0000 C   0  0  0  0  0  0  0  0  0  0  0  0
   -3.7477    4.4565    0.0000 C   0  0  0  0  0  0  0  0  0  0  0  0
   -4.3355    5.2655    0.0000 C   0  0  0  0  0  0  0  0  0  0  0  0
   -3.9287    6.1790    0.0000 C   0  0  0  0  0  0  0  0  0  0  0  0
   -2.9342    6.2836    0.0000 C   0  0  0  0  0  0  0  0  0  0  0  0
   -2.5275    7.1971    0.0000 F   0  0  0  0  0  0  0  0  0  0  0  0
   -2.3464    5.4745    0.0000 C   0  0  0  0  0  0  0  0  0  0  0  0
   -2.7532    4.5610    0.0000 C   0  0  0  0  0  0  0  0  0  0  0  0
   -6.1031    1.8405    0.0000 C   0  0  0  0  0  0  0  0  0  0  0  0
   -6.9691    2.3405    0.0000 O   0  0  0  0  0  0  0  0  0  0  0  0
   -6.1031    0.8405    0.0000 N   0  0  0  0  0  0  0  0  0  0  0  0
   -6.9691    0.3405    0.0000 C   0  0  0  0  0  0  0  0  0  0  0  0
   -6.9691   -0.6595    0.0000 C   0  0  0  0  0  0  0  0  0  0  0  0
   -7.8352   -1.1595    0.0000 C   0  0  0  0  0  0  0  0  0  0  0  0
   -8.7012   -0.6595    0.0000 C   0  0  0  0  0  0  0  0  0  0  0  0
   -9.5672   -1.1595    0.0000 O   0  0  0  0  0  0  0  0  0  0  0  0
   -8.7012    0.3405    0.0000 C   0  0  0  0  0  0  0  0  0  0  0  0
   -7.8352    0.8405    0.0000 C   0  0  0  0  0  0  0  0  0  0  0  0
   -0.2710    1.7107    0.0000 O   0  0  0  0  0  0  0  0  0  0  0  0
    0.3584    0.9336    0.0000 C   0  0  0  0  0  0  0  0  0  0  0  0
    1.2919    0.5752    0.0000 C   0  0  0  0  0  0  0  0  0  0  0  0
    1.1355    1.5629    0.0000 C   0  0  0  0  0  0  0  0  0  0  0  0
    0.0000   -0.0000    0.0000 O   0  0  0  0  0  0  0  0  0  0  0  0
  1  2  1  0  0  0  0
  2  3  1  0  0  0  0
  2  4  1  0  0  0  0
  2  5  1  0  0  0  0
  5  6  1  0  0  0  0
  6  7  2  0  0  0  0
  6  8  1  0  0  0  0
  8  9  1  0  0  0  0
  9 10  1  1  0  0  0
  9 51  1  0  0  0  0
  9 11  1  0  0  0  0
 11 12  1  0  0  0  0
 12 13  1  1  0  0  0
 12 14  1  0  0  0  0
 12 47  1  0  0  0  0
 14 15  1  0  0  0  0
 15 16  1  0  0  0  0
 16 29  1  0  0  0  0
 16 17  1  0  0  0  0
 17 18  1  0  0  0  0
 17 21  2  0  0  0  0
 18 19  1  0  0  0  0
 18 20  1  0  0  0  0
 21 22  1  0  0  0  0
 21 37  1  0  0  0  0
 22 23  1  0  0  0  0
 22 29  2  0  0  0  0
 23 28  1  0  0  0  0
 23 24  2  0  0  0  0
 24 25  1  0  0  0  0
 25 26  2  0  0  0  0
 26 27  1  0  0  0  0
 27 28  2  0  0  0  0
 29 30  1  0  0  0  0
 30 36  1  0  0  0  0
 30 31  2  0  0  0  0
 31 32  1  0  0  0  0
 32 33  2  0  0  0  0
 33 34  1  0  0  0  0
 33 35  1  0  0  0  0
 35 36  2  0  0  0  0
 37 38  2  0  0  0  0
 37 39  1  0  0  0  0
 39 40  1  0  0  0  0
 40 46  1  0  0  0  0
 40 41  2  0  0  0  0
 41 42  1  0  0  0  0
 42 43  2  0  0  0  0
 43 44  1  0  0  0  0
 43 45  1  0  0  0  0
 45 46  2  0  0  0  0
 47 48  1  0  0  0  0
 48 49  1  0  0  0  0
 48 50  1  0  0  0  0
 48 51  1  0  0  0  0
M  END
>  <Supplier>
www.ambinter.com

>  <Ambinter_reference>
Amb19132359

>  <MW>
670.809

$$$$
Amb19848993
 OpenBabel08272101522D

 41 44  0  0  1  0  0  0  0  0999 V2000
    2.5823    0.7045    0.0000 C   0  0  0  0  0  0  0  0  0  0  0  0
    1.5878    0.8090    0.0000 C   0  0  0  0  0  0  0  0  0  0  0  0
    1.1810    1.7226    0.0000 C   0  0  0  0  0  0  0  0  0  0  0  0
    1.0000    0.0000    0.0000 C   0  0  0  0  0  0  0  0  0  0  0  0
    1.3090   -0.9511    0.0000 C   0  0  0  0  0  0  0  0  0  0  0  0
    2.2601   -1.2601    0.0000 C   0  0  0  0  0  0  0  0  0  0  0  0
    2.4680   -2.2382    0.0000 O   0  0  0  0  0  0  0  0  0  0  0  0
    3.0032   -0.5909    0.0000 N   0  0  0  0  0  0  0  0  0  0  0  0
    3.9543   -0.9000    0.0000 C   0  0  0  0  0  0  0  0  0  0  0  0
    4.6974   -0.2308    0.0000 C   0  0  0  0  0  0  0  0  0  0  0  0
    5.6485   -0.5398    0.0000 C   0  0  0  0  0  0  0  0  0  0  0  0
    5.8564   -1.5180    0.0000 C   0  0  0  0  0  0  0  0  0  0  0  0
    5.1132   -2.1871    0.0000 C   0  0  0  0  0  0  0  0  0  0  0  0
    4.1622   -1.8781    0.0000 C   0  0  0  0  0  0  0  0  0  0  0  0
    0.5000   -1.5388    0.0000 C   0  0  0  0  0  0  0  0  0  0  0  0
    0.5000   -2.5388    0.0000 C   0  0  0  0  0  0  0  0  0  0  0  0
    1.3660   -3.0388    0.0000 C   0  0  0  0  0  0  0  0  0  0  0  0
    1.3660   -4.0388    0.0000 C   0  0  0  0  0  0  0  0  0  0  0  0
    0.5000   -4.5388    0.0000 C   0  0  0  0  0  0  0  0  0  0  0  0
   -0.3660   -4.0388    0.0000 C   0  0  0  0  0  0  0  0  0  0  0  0
   -0.3660   -3.0388    0.0000 C   0  0  0  0  0  0  0  0  0  0  0  0
   -0.3090   -0.9511    0.0000 C   0  0  0  0  0  0  0  0  0  0  0  0
   -1.2601   -1.2601    0.0000 C   0  0  0  0  0  0  0  0  0  0  0  0
   -1.4680   -2.2382    0.0000 C   0  0  0  0  0  0  0  0  0  0  0  0
   -2.4190   -2.5472    0.0000 C   0  0  0  0  0  0  0  0  0  0  0  0
   -3.1622   -1.8781    0.0000 C   0  0  0  0  0  0  0  0  0  0  0  0
   -4.1132   -2.1871    0.0000 F   0  0  0  0  0  0  0  0  0  0  0  0
   -2.9543   -0.9000    0.0000 C   0  0  0  0  0  0  0  0  0  0  0  0
   -2.0032   -0.5909    0.0000 C   0  0  0  0  0  0  0  0  0  0  0  0
   -0.0000   -0.0000    0.0000 N   0  0  0  0  0  0  0  0  0  0  0  0
   -0.5878    0.8090    0.0000 C   0  0  0  0  0  0  0  0  0  0  0  0
   -1.5823    0.7045    0.0000 C   0  0  0  0  0  0  0  0  0  0  0  0
   -2.1701    1.5135    0.0000 C   0  0  3  0  0  0  0  0  0  0  0  0
   -1.7634    2.4271    0.0000 O   0  0  0  0  0  0  0  0  0  0  0  0
   -3.1646    1.4090    0.0000 C   0  0  0  0  0  0  0  0  0  0  0  0
   -3.7524    2.2180    0.0000 C   0  0  3  0  0  0  0  0  0  0  0  0
   -3.3457    3.1315    0.0000 O   0  0  0  0  0  0  0  0  0  0  0  0
   -4.7469    2.1135    0.0000 C   0  0  0  0  0  0  0  0  0  0  0  0
   -5.3347    2.9225    0.0000 C   0  0  0  0  0  0  0  0  0  0  0  0
   -4.9280    3.8360    0.0000 O   0  5  0  0  0  0  0  0  0  0  0  0
   -6.3292    2.8180    0.0000 O   0  0  0  0  0  0  0  0  0  0  0  0
  1  2  1  0  0  0  0
  2  3  1  0  0  0  0
  2  4  1  0  0  0  0
  4 30  1  0  0  0  0
  4  5  2  0  0  0  0
  5  6  1  0  0  0  0
  5 15  1  0  0  0  0
  6  7  2  0  0  0  0
  6  8  1  0  0  0  0
  8  9  1  0  0  0  0
  9 14  1  0  0  0  0
  9 10  2  0  0  0  0
 10 11  1  0  0  0  0
 11 12  2  0  0  0  0
 12 13  1  0  0  0  0
 13 14  2  0  0  0  0
 15 16  1  0  0  0  0
 15 22  2  0  0  0  0
 16 21  1  0  0  0  0
 16 17  2  0  0  0  0
 17 18  1  0  0  0  0
 18 19  2  0  0  0  0
 19 20  1  0  0  0  0
 20 21  2  0  0  0  0
 22 23  1  0  0  0  0
 22 30  1  0  0  0  0
 23 29  1  0  0  0  0
 23 24  2  0  0  0  0
 24 25  1  0  0  0  0
 25 26  2  0  0  0  0
 26 27  1  0  0  0  0
 26 28  1  0  0  0  0
 28 29  2  0  0  0  0
 30 31  1  0  0  0  0
 31 32  1  0  0  0  0
 32 33  1  0  0  0  0
 33 34  1  0  0  0  0
 33 35  1  0  0  0  0
 35 36  1  0  0  0  0
 36 37  1  0  0  0  0
 36 38  1  0  0  0  0
 38 39  1  0  0  0  0
 39 40  1  0  0  0  0
 39 41  2  0  0  0  0
M  CHG  1  40  -1
M  END
>  <Supplier>
www.ambinter.com

>  <Ambinter_reference>
Amb19848993

>  <MW>
557.632

$$$$
Amb22055996
 OpenBabel08272101522D

 42 44  0  0  1  0  0  0  0  0999 V2000
   -2.5789    0.3889    0.0000 Na  0  3  0  0  0 15  0  0  0  0  0  0
    9.4115   -3.6315    0.0000 C   0  0  0  0  0  0  0  0  0  0  0  0
    8.4170   -3.5270    0.0000 C   0  0  0  0  0  0  0  0  0  0  0  0
    8.0103   -2.6135    0.0000 C   0  0  0  0  0  0  0  0  0  0  0  0
    7.8292   -4.3360    0.0000 C   0  0  0  0  0  0  0  0  0  0  0  0
    8.1382   -5.2871    0.0000 C   0  0  0  0  0  0  0  0  0  0  0  0
    9.0893   -5.5961    0.0000 C   0  0  0  0  0  0  0  0  0  0  0  0
    9.2972   -6.5742    0.0000 O   0  0  0  0  0  0  0  0  0  0  0  0
    9.8324   -4.9270    0.0000 N   0  0  0  0  0  0  0  0  0  0  0  0
   10.7835   -5.2360    0.0000 C   0  0  0  0  0  0  0  0  0  0  0  0
   11.5266   -4.5669    0.0000 C   0  0  0  0  0  0  0  0  0  0  0  0
   12.4777   -4.8759    0.0000 C   0  0  0  0  0  0  0  0  0  0  0  0
   12.6856   -5.8540    0.0000 C   0  0  0  0  0  0  0  0  0  0  0  0
   11.9425   -6.5232    0.0000 C   0  0  0  0  0  0  0  0  0  0  0  0
   10.9914   -6.2141    0.0000 C   0  0  0  0  0  0  0  0  0  0  0  0
    7.3292   -5.8749    0.0000 C   0  0  0  0  0  0  0  0  0  0  0  0
    7.3292   -6.8749    0.0000 C   0  0  0  0  0  0  0  0  0  0  0  0
    8.1953   -7.3749    0.0000 C   0  0  0  0  0  0  0  0  0  0  0  0
    8.1953   -8.3749    0.0000 C   0  0  0  0  0  0  0  0  0  0  0  0
    7.3292   -8.8749    0.0000 C   0  0  0  0  0  0  0  0  0  0  0  0
    6.4632   -8.3749    0.0000 C   0  0  0  0  0  0  0  0  0  0  0  0
    6.4632   -7.3749    0.0000 C   0  0  0  0  0  0  0  0  0  0  0  0
    6.5202   -5.2871    0.0000 C   0  0  0  0  0  0  0  0  0  0  0  0
    5.5692   -5.5961    0.0000 C   0  0  0  0  0  0  0  0  0  0  0  0
    5.3612   -6.5742    0.0000 C   0  0  0  0  0  0  0  0  0  0  0  0
    4.4102   -6.8833    0.0000 C   0  0  0  0  0  0  0  0  0  0  0  0
    3.6670   -6.2141    0.0000 C   0  0  0  0  0  0  0  0  0  0  0  0
    2.7160   -6.5232    0.0000 F   0  0  0  0  0  0  0  0  0  0  0  0
    3.8750   -5.2360    0.0000 C   0  0  0  0  0  0  0  0  0  0  0  0
    4.8260   -4.9270    0.0000 C   0  0  0  0  0  0  0  0  0  0  0  0
    6.8292   -4.3360    0.0000 N   0  0  0  0  0  0  0  0  0  0  0  0
    6.2414   -3.5270    0.0000 C   0  0  0  0  0  0  0  0  0  0  0  0
    5.2469   -3.6315    0.0000 C   0  0  0  0  0  0  0  0  0  0  0  0
    4.6591   -2.8225    0.0000 C   0  0  3  0  0  0  0  0  0  0  0  0
    5.0659   -1.9090    0.0000 O   0  0  0  0  0  0  0  0  0  0  0  0
    3.6646   -2.9271    0.0000 C   0  0  0  0  0  0  0  0  0  0  0  0
    3.0768   -2.1180    0.0000 C   0  0  0  0  0  0  0  0  0  0  0  0
    3.4836   -1.2045    0.0000 O   0  0  0  0  0  0  0  0  0  0  0  0
    2.0823   -2.2226    0.0000 C   0  0  0  0  0  0  0  0  0  0  0  0
    1.4945   -1.4135    0.0000 C   0  0  0  0  0  0  0  0  0  0  0  0
    1.9013   -0.5000    0.0000 O   0  5  0  0  0  0  0  0  0  0  0  0
    0.5000   -1.5181    0.0000 O   0  0  0  0  0  0  0  0  0  0  0  0
  2  3  1  0  0  0  0
  3  4  1  0  0  0  0
  3  5  1  0  0  0  0
  5 31  1  0  0  0  0
  5  6  2  0  0  0  0
  6  7  1  0  0  0  0
  6 16  1  0  0  0  0
  7  8  2  0  0  0  0
  7  9  1  0  0  0  0
  9 10  1  0  0  0  0
 10 15  1  0  0  0  0
 10 11  2  0  0  0  0
 11 12  1  0  0  0  0
 12 13  2  0  0  0  0
 13 14  1  0  0  0  0
 14 15  2  0  0  0  0
 16 17  1  0  0  0  0
 16 23  2  0  0  0  0
 17 22  1  0  0  0  0
 17 18  2  0  0  0  0
 18 19  1  0  0  0  0
 19 20  2  0  0  0  0
 20 21  1  0  0  0  0
 21 22  2  0  0  0  0
 23 24  1  0  0  0  0
 23 31  1  0  0  0  0
 24 30  1  0  0  0  0
 24 25  2  0  0  0  0
 25 26  1  0  0  0  0
 26 27  2  0  0  0  0
 27 28  1  0  0  0  0
 27 29  1  0  0  0  0
 29 30  2  0  0  0  0
 31 32  1  0  0  0  0
 32 33  1  0  0  0  0
 33 34  1  0  0  0  0
 34 35  1  0  0  0  0
 34 36  1  0  0  0  0
 36 37  1  0  0  0  0
 37 38  2  0  0  0  0
 37 39  1  0  0  0  0
 39 40  1  0  0  0  0
 40 41  1  0  0  0  0
 40 42  2  0  0  0  0
M  CHG  2   1   1  41  -1
M  END
>  <Supplier>
www.ambinter.com

>  <Ambinter_reference>
Amb22055996

>  <MW>
578.606

$$$$
Amb22264600
 OpenBabel08272101522D

 40 43  0  0  0  0  0  0  0  0999 V2000
    2.3794    1.2260    0.0000 C   0  0  0  0  0  0  0  0  0  0  0  0
    1.3849    1.1215    0.0000 C   0  0  0  0  0  0  0  0  0  0  0  0
    0.7971    1.9305    0.0000 C   0  0  0  0  0  0  0  0  0  0  0  0
    0.9781    0.2079    0.0000 C   0  0  0  0  0  0  0  0  0  0  0  0
    1.4781   -0.6581    0.0000 C   0  0  0  0  0  0  0  0  0  0  0  0
    2.4727   -0.7626    0.0000 C   0  0  0  0  0  0  0  0  0  0  0  0
    2.8794   -1.6762    0.0000 O   0  0  0  0  0  0  0  0  0  0  0  0
    3.0605    0.0464    0.0000 N   0  0  0  0  0  0  0  0  0  0  0  0
    4.0550   -0.0582    0.0000 C   0  0  0  0  0  0  0  0  0  0  0  0
    4.6428    0.7509    0.0000 C   0  0  0  0  0  0  0  0  0  0  0  0
    5.6373    0.6463    0.0000 C   0  0  0  0  0  0  0  0  0  0  0  0
    6.0440   -0.2672    0.0000 C   0  0  0  0  0  0  0  0  0  0  0  0
    5.4562   -1.0762    0.0000 C   0  0  0  0  0  0  0  0  0  0  0  0
    4.4617   -0.9717    0.0000 C   0  0  0  0  0  0  0  0  0  0  0  0
    0.8090   -1.4013    0.0000 C   0  0  0  0  0  0  0  0  0  0  0  0
    1.0169   -2.3794    0.0000 C   0  0  0  0  0  0  0  0  0  0  0  0
    1.9680   -2.6884    0.0000 C   0  0  0  0  0  0  0  0  0  0  0  0
    2.1759   -3.6666    0.0000 C   0  0  0  0  0  0  0  0  0  0  0  0
    1.4328   -4.3357    0.0000 C   0  0  0  0  0  0  0  0  0  0  0  0
    0.4817   -4.0267    0.0000 C   0  0  0  0  0  0  0  0  0  0  0  0
    0.2738   -3.0485    0.0000 C   0  0  0  0  0  0  0  0  0  0  0  0
   -0.1045   -0.9945    0.0000 C   0  0  0  0  0  0  0  0  0  0  0  0
   -0.9706   -1.4945    0.0000 C   0  0  0  0  0  0  0  0  0  0  0  0
   -1.8366   -0.9945    0.0000 C   0  0  0  0  0  0  0  0  0  0  0  0
   -1.8366    0.0055    0.0000 C   0  0  0  0  0  0  0  0  0  0  0  0
   -2.7026    0.5055    0.0000 C   0  0  0  0  0  0  0  0  0  0  0  0
   -3.5686    0.0055    0.0000 C   0  0  0  0  0  0  0  0  0  0  0  0
   -4.4347    0.5055    0.0000 F   0  0  0  0  0  0  0  0  0  0  0  0
   -3.5686   -0.9945    0.0000 C   0  0  0  0  0  0  0  0  0  0  0  0
   -2.7026   -1.4945    0.0000 C   0  0  0  0  0  0  0  0  0  0  0  0
    0.0000   -0.0000    0.0000 N   0  0  0  0  0  0  0  0  0  0  0  0
   -0.7431    0.6691    0.0000 C   0  0  0  0  0  0  0  0  0  0  0  0
   -0.5352    1.6473    0.0000 C   0  0  0  0  0  0  0  0  0  0  0  0
   -1.2784    2.3164    0.0000 C   0  0  0  0  0  0  0  0  0  0  0  0
   -2.2294    2.0074    0.0000 O   0  0  0  0  0  0  0  0  0  0  0  0
   -2.9726    2.6765    0.0000 C   0  0  0  0  0  0  0  0  0  0  0  0
   -3.9236    2.3675    0.0000 C   0  0  0  0  0  0  0  0  0  0  0  0
   -1.0705    3.2946    0.0000 O   0  0  0  0  0  0  0  0  0  0  0  0
   -1.8136    3.9637    0.0000 C   0  0  0  0  0  0  0  0  0  0  0  0
   -2.7647    3.6547    0.0000 C   0  0  0  0  0  0  0  0  0  0  0  0
  1  2  1  0  0  0  0
  2  3  1  0  0  0  0
  2  4  1  0  0  0  0
  4 31  1  0  0  0  0
  4  5  2  0  0  0  0
  5  6  1  0  0  0  0
  5 15  1  0  0  0  0
  6  7  2  0  0  0  0
  6  8  1  0  0  0  0
  8  9  1  0  0  0  0
  9 14  1  0  0  0  0
  9 10  2  0  0  0  0
 10 11  1  0  0  0  0
 11 12  2  0  0  0  0
 12 13  1  0  0  0  0
 13 14  2  0  0  0  0
 15 16  1  0  0  0  0
 15 22  2  0  0  0  0
 16 21  1  0  0  0  0
 16 17  2  0  0  0  0
 17 18  1  0  0  0  0
 18 19  2  0  0  0  0
 19 20  1  0  0  0  0
 20 21  2  0  0  0  0
 22 23  1  0  0  0  0
 22 31  1  0  0  0  0
 23 24  1  0  0  0  0
 24 30  1  0  0  0  0
 24 25  2  0  0  0  0
 25 26  1  0  0  0  0
 26 27  2  0  0  0  0
 27 28  1  0  0  0  0
 27 29  1  0  0  0  0
 29 30  2  0  0  0  0
 31 32  1  0  0  0  0
 32 33  1  0  0  0  0
 33 34  1  0  0  0  0
 34 35  1  0  0  0  0
 34 38  1  0  0  0  0
 35 36  1  0  0  0  0
 36 37  1  0  0  0  0
 38 39  1  0  0  0  0
 39 40  1  0  0  0  0
M  END
>  <Supplier>
www.ambinter.com

>  <Ambinter_reference>
Amb22264600

>  <MW>
542.683

$$$$
Amb24084695
 OpenBabel08272101522D

 49 53  0  0  1  0  0  0  0  0999 V2000
    3.2048   -1.7104    0.0000 C   0  0  0  0  0  0  0  0  0  0  0  0
    2.3958   -1.1226    0.0000 C   0  0  0  0  0  0  0  0  0  0  0  0
    2.2913   -2.1171    0.0000 C   0  0  0  0  0  0  0  0  0  0  0  0
    2.9836   -0.3136    0.0000 C   0  0  0  0  0  0  0  0  0  0  0  0
    1.4013   -1.0181    0.0000 O   0  0  0  0  0  0  0  0  0  0  0  0
    0.8135   -1.8271    0.0000 C   0  0  0  0  0  0  0  0  0  0  0  0
    1.2202   -2.7406    0.0000 O   0  0  0  0  0  0  0  0  0  0  0  0
   -0.1810   -1.7226    0.0000 C   0  0  0  0  0  0  0  0  0  0  0  0
   -0.5878   -0.8090    0.0000 C   0  0  3  0  0  0  0  0  0  0  0  0
   -1.5823   -0.7045    0.0000 C   0  0  0  0  0  0  0  0  0  0  0  0
   -1.9890    0.2091    0.0000 C   0  0  3  0  0  0  0  0  0  0  0  0
   -2.9836    0.3136    0.0000 C   0  0  0  0  0  0  0  0  0  0  0  0
   -3.3903    1.2271    0.0000 C   0  0  0  0  0  0  0  0  0  0  0  0
   -4.3848    1.3317    0.0000 N   0  0  0  0  0  0  0  0  0  0  0  0
   -5.0540    0.5885    0.0000 C   0  0  0  0  0  0  0  0  0  0  0  0
   -4.8460   -0.3896    0.0000 C   0  0  0  0  0  0  0  0  0  0  0  0
   -5.5892   -1.0588    0.0000 C   0  0  0  0  0  0  0  0  0  0  0  0
   -3.8950   -0.6987    0.0000 C   0  0  0  0  0  0  0  0  0  0  0  0
   -5.9675    0.9953    0.0000 C   0  0  0  0  0  0  0  0  0  0  0  0
   -5.8630    1.9898    0.0000 C   0  0  0  0  0  0  0  0  0  0  0  0
   -6.6061    2.6589    0.0000 C   0  0  0  0  0  0  0  0  0  0  0  0
   -7.5572    2.3499    0.0000 C   0  0  0  0  0  0  0  0  0  0  0  0
   -8.3003    3.0190    0.0000 C   0  0  0  0  0  0  0  0  0  0  0  0
   -8.0924    3.9972    0.0000 C   0  0  0  0  0  0  0  0  0  0  0  0
   -7.1413    4.3062    0.0000 C   0  0  0  0  0  0  0  0  0  0  0  0
   -6.3982    3.6371    0.0000 C   0  0  0  0  0  0  0  0  0  0  0  0
   -4.8848    2.1977    0.0000 C   0  0  0  0  0  0  0  0  0  0  0  0
   -4.4781    3.1112    0.0000 C   0  0  0  0  0  0  0  0  0  0  0  0
   -5.0659    3.9202    0.0000 C   0  0  0  0  0  0  0  0  0  0  0  0
   -4.6591    4.8338    0.0000 C   0  0  0  0  0  0  0  0  0  0  0  0
   -3.6646    4.9383    0.0000 C   0  0  0  0  0  0  0  0  0  0  0  0
   -3.2579    5.8519    0.0000 F   0  0  0  0  0  0  0  0  0  0  0  0
   -3.0768    4.1293    0.0000 C   0  0  0  0  0  0  0  0  0  0  0  0
   -3.4836    3.2158    0.0000 C   0  0  0  0  0  0  0  0  0  0  0  0
   -6.8335    0.4953    0.0000 C   0  0  0  0  0  0  0  0  0  0  0  0
   -7.6996    0.9953    0.0000 O   0  0  0  0  0  0  0  0  0  0  0  0
   -6.8335   -0.5047    0.0000 N   0  0  0  0  0  0  0  0  0  0  0  0
   -7.6996   -1.0047    0.0000 C   0  0  0  0  0  0  0  0  0  0  0  0
   -7.6996   -2.0047    0.0000 C   0  0  0  0  0  0  0  0  0  0  0  0
   -8.5656   -2.5047    0.0000 C   0  0  0  0  0  0  0  0  0  0  0  0
   -9.4316   -2.0047    0.0000 C   0  0  0  0  0  0  0  0  0  0  0  0
   -9.4316   -1.0047    0.0000 C   0  0  0  0  0  0  0  0  0  0  0  0
   -8.5656   -0.5047    0.0000 C   0  0  0  0  0  0  0  0  0  0  0  0
   -8.5656    0.4953    0.0000 O   0  0  0  0  0  0  0  0  0  0  0  0
   -1.4013    1.0181    0.0000 O   0  0  0  0  0  0  0  0  0  0  0  0
   -0.4067    0.9135    0.0000 C   0  0  0  0  0  0  0  0  0  0  0  0
    0.5068    1.3203    0.0000 C   0  0  0  0  0  0  0  0  0  0  0  0
   -0.3022    1.9081    0.0000 C   0  0  0  0  0  0  0  0  0  0  0  0
    0.0000   -0.0000    0.0000 O   0  0  0  0  0  0  0  0  0  0  0  0
  1  2  1  0  0  0  0
  2  3  1  0  0  0  0
  2  4  1  0  0  0  0
  2  5  1  0  0  0  0
  5  6  1  0  0  0  0
  6  7  2  0  0  0  0
  6  8  1  0  0  0  0
  8  9  1  0  0  0  0
  9 49  1  0  0  0  0
  9 10  1  0  0  0  0
 10 11  1  0  0  0  0
 11 12  1  0  0  0  0
 11 45  1  0  0  0  0
 12 13  1  0  0  0  0
 13 14  1  0  0  0  0
 14 27  1  0  0  0  0
 14 15  1  0  0  0  0
 15 16  1  0  0  0  0
 15 19  2  0  0  0  0
 16 17  1  0  0  0  0
 16 18  1  0  0  0  0
 19 20  1  0  0  0  0
 19 35  1  0  0  0  0
 20 21  1  0  0  0  0
 20 27  2  0  0  0  0
 21 26  1  0  0  0  0
 21 22  2  0  0  0  0
 22 23  1  0  0  0  0
 23 24  2  0  0  0  0
 24 25  1  0  0  0  0
 25 26  2  0  0  0  0
 27 28  1  0  0  0  0
 28 34  1  0  0  0  0
 28 29  2  0  0  0  0
 29 30  1  0  0  0  0
 30 31  2  0  0  0  0
 31 32  1  0  0  0  0
 31 33  1  0  0  0  0
 33 34  2  0  0  0  0
 35 36  2  0  0  0  0
 35 37  1  0  0  0  0
 37 38  1  0  0  0  0
 38 43  1  0  0  0  0
 38 39  2  0  0  0  0
 39 40  1  0  0  0  0
 40 41  2  0  0  0  0
 41 42  1  0  0  0  0
 42 43  2  0  0  0  0
 43 44  1  0  0  0  0
 45 46  1  0  0  0  0
 46 47  1  0  0  0  0
 46 48  1  0  0  0  0
 46 49  1  0  0  0  0
M  END
>  <Supplier>
www.ambinter.com

>  <Ambinter_reference>
Amb24084695

>  <MW>
670.809

$$$$
Amb24084696
 OpenBabel08272101522D

 56 61  0  0  1  0  0  0  0  0999 V2000
    3.2048   -1.7104    0.0000 C   0  0  0  0  0  0  0  0  0  0  0  0
    2.3958   -1.1226    0.0000 C   0  0  0  0  0  0  0  0  0  0  0  0
    2.2913   -2.1171    0.0000 C   0  0  0  0  0  0  0  0  0  0  0  0
    2.9836   -0.3136    0.0000 C   0  0  0  0  0  0  0  0  0  0  0  0
    1.4013   -1.0181    0.0000 O   0  0  0  0  0  0  0  0  0  0  0  0
    0.8135   -1.8271    0.0000 C   0  0  0  0  0  0  0  0  0  0  0  0
    1.2202   -2.7406    0.0000 O   0  0  0  0  0  0  0  0  0  0  0  0
   -0.1810   -1.7226    0.0000 C   0  0  0  0  0  0  0  0  0  0  0  0
   -0.5878   -0.8090    0.0000 C   0  0  3  0  0  0  0  0  0  0  0  0
   -1.5823   -0.7045    0.0000 C   0  0  0  0  0  0  0  0  0  0  0  0
   -1.9890    0.2091    0.0000 C   0  0  3  0  0  0  0  0  0  0  0  0
   -2.9836    0.3136    0.0000 C   0  0  0  0  0  0  0  0  0  0  0  0
   -3.3903    1.2271    0.0000 C   0  0  0  0  0  0  0  0  0  0  0  0
   -4.3848    1.3317    0.0000 N   0  0  0  0  0  0  0  0  0  0  0  0
   -5.0540    0.5885    0.0000 C   0  0  0  0  0  0  0  0  0  0  0  0
   -4.8460   -0.3896    0.0000 C   0  0  0  0  0  0  0  0  0  0  0  0
   -5.5892   -1.0588    0.0000 C   0  0  0  0  0  0  0  0  0  0  0  0
   -3.8950   -0.6987    0.0000 C   0  0  0  0  0  0  0  0  0  0  0  0
   -5.9675    0.9953    0.0000 C   0  0  0  0  0  0  0  0  0  0  0  0
   -5.8630    1.9898    0.0000 C   0  0  0  0  0  0  0  0  0  0  0  0
   -6.6061    2.6589    0.0000 C   0  0  0  0  0  0  0  0  0  0  0  0
   -7.5572    2.3499    0.0000 C   0  0  0  0  0  0  0  0  0  0  0  0
   -8.3003    3.0190    0.0000 C   0  0  0  0  0  0  0  0  0  0  0  0
   -8.0924    3.9972    0.0000 C   0  0  0  0  0  0  0  0  0  0  0  0
   -7.1413    4.3062    0.0000 C   0  0  0  0  0  0  0  0  0  0  0  0
   -6.3982    3.6371    0.0000 C   0  0  0  0  0  0  0  0  0  0  0  0
   -4.8848    2.1977    0.0000 C   0  0  0  0  0  0  0  0  0  0  0  0
   -4.4781    3.1112    0.0000 C   0  0  0  0  0  0  0  0  0  0  0  0
   -5.0659    3.9202    0.0000 C   0  0  0  0  0  0  0  0  0  0  0  0
   -4.6591    4.8338    0.0000 C   0  0  0  0  0  0  0  0  0  0  0  0
   -3.6646    4.9383    0.0000 C   0  0  0  0  0  0  0  0  0  0  0  0
   -3.2579    5.8519    0.0000 F   0  0  0  0  0  0  0  0  0  0  0  0
   -3.0768    4.1293    0.0000 C   0  0  0  0  0  0  0  0  0  0  0  0
   -3.4836    3.2158    0.0000 C   0  0  0  0  0  0  0  0  0  0  0  0
   -6.8335    0.4953    0.0000 C   0  0  0  0  0  0  0  0  0  0  0  0
   -7.6996    0.9953    0.0000 O   0  0  0  0  0  0  0  0  0  0  0  0
   -6.8335   -0.5047    0.0000 N   0  0  0  0  0  0  0  0  0  0  0  0
   -7.6996   -1.0047    0.0000 C   0  0  0  0  0  0  0  0  0  0  0  0
   -7.6996   -2.0047    0.0000 C   0  0  0  0  0  0  0  0  0  0  0  0
   -8.5656   -2.5047    0.0000 C   0  0  0  0  0  0  0  0  0  0  0  0
   -9.4316   -2.0047    0.0000 C   0  0  0  0  0  0  0  0  0  0  0  0
   -9.4316   -1.0047    0.0000 C   0  0  0  0  0  0  0  0  0  0  0  0
   -8.5656   -0.5047    0.0000 C   0  0  0  0  0  0  0  0  0  0  0  0
   -8.5656    0.4953    0.0000 O   0  0  0  0  0  0  0  0  0  0  0  0
   -9.4316    0.9953    0.0000 C   0  0  0  0  0  0  0  0  0  0  0  0
   -9.4316    1.9953    0.0000 C   0  0  0  0  0  0  0  0  0  0  0  0
  -10.2976    2.4953    0.0000 C   0  0  0  0  0  0  0  0  0  0  0  0
  -10.2976    3.4953    0.0000 C   0  0  0  0  0  0  0  0  0  0  0  0
   -9.4316    3.9953    0.0000 C   0  0  0  0  0  0  0  0  0  0  0  0
   -8.5656    3.4953    0.0000 C   0  0  0  0  0  0  0  0  0  0  0  0
   -8.5656    2.4953    0.0000 C   0  0  0  0  0  0  0  0  0  0  0  0
   -1.4013    1.0181    0.0000 O   0  0  0  0  0  0  0  0  0  0  0  0
   -0.4067    0.9135    0.0000 C   0  0  0  0  0  0  0  0  0  0  0  0
    0.5068    1.3203    0.0000 C   0  0  0  0  0  0  0  0  0  0  0  0
   -0.3022    1.9081    0.0000 C   0  0  0  0  0  0  0  0  0  0  0  0
    0.0000   -0.0000    0.0000 O   0  0  0  0  0  0  0  0  0  0  0  0
  1  2  1  0  0  0  0
  2  3  1  0  0  0  0
  2  4  1  0  0  0  0
  2  5  1  0  0  0  0
  5  6  1  0  0  0  0
  6  7  2  0  0  0  0
  6  8  1  0  0  0  0
  8  9  1  0  0  0  0
  9 56  1  0  0  0  0
  9 10  1  0  0  0  0
 10 11  1  0  0  0  0
 11 12  1  0  0  0  0
 11 52  1  0  0  0  0
 12 13  1  0  0  0  0
 13 14  1  0  0  0  0
 14 27  1  0  0  0  0
 14 15  1  0  0  0  0
 15 16  1  0  0  0  0
 15 19  2  0  0  0  0
 16 17  1  0  0  0  0
 16 18  1  0  0  0  0
 19 20  1  0  0  0  0
 19 35  1  0  0  0  0
 20 21  1  0  0  0  0
 20 27  2  0  0  0  0
 21 26  1  0  0  0  0
 21 22  2  0  0  0  0
 22 23  1  0  0  0  0
 23 24  2  0  0  0  0
 24 25  1  0  0  0  0
 25 26  2  0  0  0  0
 27 28  1  0  0  0  0
 28 34  1  0  0  0  0
 28 29  2  0  0  0  0
 29 30  1  0  0  0  0
 30 31  2  0  0  0  0
 31 32  1  0  0  0  0
 31 33  1  0  0  0  0
 33 34  2  0  0  0  0
 35 36  2  0  0  0  0
 35 37  1  0  0  0  0
 37 38  1  0  0  0  0
 38 43  1  0  0  0  0
 38 39  2  0  0  0  0
 39 40  1  0  0  0  0
 40 41  2  0  0  0  0
 41 42  1  0  0  0  0
 42 43  2  0  0  0  0
 43 44  1  0  0  0  0
 44 45  1  0  0  0  0
 45 46  1  0  0  0  0
 46 51  1  0  0  0  0
 46 47  2  0  0  0  0
 47 48  1  0  0  0  0
 48 49  2  0  0  0  0
 49 50  1  0  0  0  0
 50 51  2  0  0  0  0
 52 53  1  0  0  0  0
 53 54  1  0  0  0  0
 53 55  1  0  0  0  0
 53 56  1  0  0  0  0
M  END
>  <Supplier>
www.ambinter.com

>  <Ambinter_reference>
Amb24084696

>  <MW>
760.932

$$$$
Amb24084697
 OpenBabel08272101522D

 56 61  0  0  1  0  0  0  0  0999 V2000
    0.1212   -3.6306    0.0000 C   0  0  0  0  0  0  0  0  0  0  0  0
    0.2257   -2.6361    0.0000 C   0  0  0  0  0  0  0  0  0  0  0  0
   -0.6879   -3.0428    0.0000 C   0  0  0  0  0  0  0  0  0  0  0  0
    1.2202   -2.7406    0.0000 C   0  0  0  0  0  0  0  0  0  0  0  0
   -0.1810   -1.7226    0.0000 O   0  0  0  0  0  0  0  0  0  0  0  0
   -1.1756   -1.6180    0.0000 C   0  0  0  0  0  0  0  0  0  0  0  0
   -1.7634   -2.4271    0.0000 O   0  0  0  0  0  0  0  0  0  0  0  0
   -1.5823   -0.7045    0.0000 C   0  0  0  0  0  0  0  0  0  0  0  0
   -0.9945    0.1045    0.0000 C   0  0  3  0  0  0  0  0  0  0  0  0
   -1.4013    1.0181    0.0000 C   0  0  0  0  0  0  0  0  0  0  0  0
   -0.8135    1.8271    0.0000 C   0  0  3  0  0  0  0  0  0  0  0  0
   -1.2202    2.7406    0.0000 C   0  0  0  0  0  0  0  0  0  0  0  0
   -0.6324    3.5497    0.0000 C   0  0  0  0  0  0  0  0  0  0  0  0
   -1.0392    4.4632    0.0000 N   0  0  0  0  0  0  0  0  0  0  0  0
   -2.0173    4.6711    0.0000 C   0  0  0  0  0  0  0  0  0  0  0  0
   -2.7605    4.0020    0.0000 C   0  0  0  0  0  0  0  0  0  0  0  0
   -3.7115    4.3110    0.0000 C   0  0  0  0  0  0  0  0  0  0  0  0
   -2.5525    3.0238    0.0000 C   0  0  0  0  0  0  0  0  0  0  0  0
   -2.1218    5.6656    0.0000 C   0  0  0  0  0  0  0  0  0  0  0  0
   -1.2083    6.0724    0.0000 C   0  0  0  0  0  0  0  0  0  0  0  0
   -1.0004    7.0505    0.0000 C   0  0  0  0  0  0  0  0  0  0  0  0
   -1.7435    7.7196    0.0000 C   0  0  0  0  0  0  0  0  0  0  0  0
   -1.5356    8.6978    0.0000 C   0  0  0  0  0  0  0  0  0  0  0  0
   -0.5846    9.0068    0.0000 C   0  0  0  0  0  0  0  0  0  0  0  0
    0.1586    8.3377    0.0000 C   0  0  0  0  0  0  0  0  0  0  0  0
   -0.0493    7.3595    0.0000 C   0  0  0  0  0  0  0  0  0  0  0  0
   -0.5392    5.3292    0.0000 C   0  0  0  0  0  0  0  0  0  0  0  0
    0.4554    5.4338    0.0000 C   0  0  0  0  0  0  0  0  0  0  0  0
    0.8621    6.3473    0.0000 C   0  0  0  0  0  0  0  0  0  0  0  0
    1.8566    6.4518    0.0000 C   0  0  0  0  0  0  0  0  0  0  0  0
    2.4444    5.6428    0.0000 C   0  0  0  0  0  0  0  0  0  0  0  0
    3.4389    5.7473    0.0000 F   0  0  0  0  0  0  0  0  0  0  0  0
    2.0377    4.7293    0.0000 C   0  0  0  0  0  0  0  0  0  0  0  0
    1.0431    4.6247    0.0000 C   0  0  0  0  0  0  0  0  0  0  0  0
   -2.9879    6.1656    0.0000 C   0  0  0  0  0  0  0  0  0  0  0  0
   -2.9879    7.1656    0.0000 O   0  0  0  0  0  0  0  0  0  0  0  0
   -3.8539    5.6656    0.0000 N   0  0  0  0  0  0  0  0  0  0  0  0
   -4.7199    6.1656    0.0000 C   0  0  0  0  0  0  0  0  0  0  0  0
   -5.5859    5.6656    0.0000 C   0  0  0  0  0  0  0  0  0  0  0  0
   -6.4520    6.1656    0.0000 C   0  0  0  0  0  0  0  0  0  0  0  0
   -6.4520    7.1656    0.0000 C   0  0  0  0  0  0  0  0  0  0  0  0
   -5.5859    7.6656    0.0000 C   0  0  0  0  0  0  0  0  0  0  0  0
   -4.7199    7.1656    0.0000 C   0  0  0  0  0  0  0  0  0  0  0  0
   -7.3180    7.6656    0.0000 O   0  0  0  0  0  0  0  0  0  0  0  0
   -8.1840    7.1656    0.0000 C   0  0  0  0  0  0  0  0  0  0  0  0
   -9.0500    7.6656    0.0000 C   0  0  0  0  0  0  0  0  0  0  0  0
   -9.9161    7.1656    0.0000 C   0  0  0  0  0  0  0  0  0  0  0  0
  -10.7821    7.6656    0.0000 C   0  0  0  0  0  0  0  0  0  0  0  0
  -10.7821    8.6656    0.0000 C   0  0  0  0  0  0  0  0  0  0  0  0
   -9.9161    9.1656    0.0000 C   0  0  0  0  0  0  0  0  0  0  0  0
   -9.0500    8.6656    0.0000 C   0  0  0  0  0  0  0  0  0  0  0  0
    0.1810    1.7226    0.0000 O   0  0  0  0  0  0  0  0  0  0  0  0
    0.5878    0.8090    0.0000 C   0  0  0  0  0  0  0  0  0  0  0  0
    1.3968    0.2212    0.0000 C   0  0  0  0  0  0  0  0  0  0  0  0
    1.5013    1.2158    0.0000 C   0  0  0  0  0  0  0  0  0  0  0  0
   -0.0000   -0.0000    0.0000 O   0  0  0  0  0  0  0  0  0  0  0  0
  1  2  1  0  0  0  0
  2  3  1  0  0  0  0
  2  4  1  0  0  0  0
  2  5  1  0  0  0  0
  5  6  1  0  0  0  0
  6  7  2  0  0  0  0
  6  8  1  0  0  0  0
  8  9  1  0  0  0  0
  9 56  1  0  0  0  0
  9 10  1  0  0  0  0
 10 11  1  0  0  0  0
 11 12  1  0  0  0  0
 11 52  1  0  0  0  0
 12 13  1  0  0  0  0
 13 14  1  0  0  0  0
 14 27  1  0  0  0  0
 14 15  1  0  0  0  0
 15 16  1  0  0  0  0
 15 19  2  0  0  0  0
 16 17  1  0  0  0  0
 16 18  1  0  0  0  0
 19 20  1  0  0  0  0
 19 35  1  0  0  0  0
 20 21  1  0  0  0  0
 20 27  2  0  0  0  0
 21 26  1  0  0  0  0
 21 22  2  0  0  0  0
 22 23  1  0  0  0  0
 23 24  2  0  0  0  0
 24 25  1  0  0  0  0
 25 26  2  0  0  0  0
 27 28  1  0  0  0  0
 28 34  1  0  0  0  0
 28 29  2  0  0  0  0
 29 30  1  0  0  0  0
 30 31  2  0  0  0  0
 31 32  1  0  0  0  0
 31 33  1  0  0  0  0
 33 34  2  0  0  0  0
 35 36  2  0  0  0  0
 35 37  1  0  0  0  0
 37 38  1  0  0  0  0
 38 43  1  0  0  0  0
 38 39  2  0  0  0  0
 39 40  1  0  0  0  0
 40 41  2  0  0  0  0
 41 42  1  0  0  0  0
 41 44  1  0  0  0  0
 42 43  2  0  0  0  0
 44 45  1  0  0  0  0
 45 46  1  0  0  0  0
 46 51  1  0  0  0  0
 46 47  2  0  0  0  0
 47 48  1  0  0  0  0
 48 49  2  0  0  0  0
 49 50  1  0  0  0  0
 50 51  2  0  0  0  0
 52 53  1  0  0  0  0
 53 54  1  0  0  0  0
 53 55  1  0  0  0  0
 53 56  1  0  0  0  0
M  END
>  <Supplier>
www.ambinter.com

>  <Ambinter_reference>
Amb24084697

>  <MW>
760.932

$$$$
Amb2678449
 OpenBabel08272101522D

 40 43  0  0  1  0  0  0  0  0999 V2000
   -3.7108   -7.1503    0.0000 C   0  0  0  0  0  0  0  0  0  0  0  0
   -3.1230   -6.3413    0.0000 O   0  0  0  0  0  0  0  0  0  0  0  0
   -3.5298   -5.4278    0.0000 C   0  0  0  0  0  0  0  0  0  0  0  0
   -2.9420   -4.6187    0.0000 O   0  0  0  0  0  0  0  0  0  0  0  0
   -4.5243   -5.3232    0.0000 C   0  0  0  0  0  0  0  0  0  0  0  0
   -4.9310   -4.4097    0.0000 C   0  0  1  0  0  0  0  0  0  0  0  0
   -5.7400   -3.8219    0.0000 H   0  0  0  0  0  0  0  0  0  0  0  0
   -4.3432   -3.6007    0.0000 C   0  0  0  0  0  0  0  0  0  0  0  0
   -4.7500   -2.6871    0.0000 C   0  0  0  0  0  0  0  0  0  0  0  0
   -4.1622   -1.8781    0.0000 N   0  0  0  0  0  0  0  0  0  0  0  0
   -3.1622   -1.8781    0.0000 C   0  0  0  0  0  0  0  0  0  0  0  0
   -2.5744   -2.6871    0.0000 C   0  0  0  0  0  0  0  0  0  0  0  0
   -1.5799   -2.5826    0.0000 C   0  0  0  0  0  0  0  0  0  0  0  0
   -2.9811   -3.6007    0.0000 C   0  0  0  0  0  0  0  0  0  0  0  0
   -2.8532   -0.9271    0.0000 C   0  0  0  0  0  0  0  0  0  0  0  0
   -3.6622   -0.3393    0.0000 C   0  0  0  0  0  0  0  0  0  0  0  0
   -4.4712   -0.9271    0.0000 C   0  0  0  0  0  0  0  0  0  0  0  0
   -5.4223   -0.6180    0.0000 C   0  0  0  0  0  0  0  0  0  0  0  0
   -5.6302    0.3601    0.0000 C   0  0  0  0  0  0  0  0  0  0  0  0
   -6.5812    0.6691    0.0000 C   0  0  0  0  0  0  0  0  0  0  0  0
   -7.3244    0.0000    0.0000 C   0  0  0  0  0  0  0  0  0  0  0  0
   -7.1165   -0.9781    0.0000 C   0  0  0  0  0  0  0  0  0  0  0  0
   -6.1654   -1.2872    0.0000 C   0  0  0  0  0  0  0  0  0  0  0  0
   -8.2754    0.3090    0.0000 F   0  0  0  0  0  0  0  0  0  0  0  0
   -3.6622    0.6607    0.0000 C   0  0  0  0  0  0  0  0  0  0  0  0
   -2.7962    1.1607    0.0000 C   0  0  0  0  0  0  0  0  0  0  0  0
   -2.7962    2.1607    0.0000 C   0  0  0  0  0  0  0  0  0  0  0  0
   -3.6622    2.6607    0.0000 C   0  0  0  0  0  0  0  0  0  0  0  0
   -4.5282    2.1607    0.0000 C   0  0  0  0  0  0  0  0  0  0  0  0
   -4.5282    1.1607    0.0000 C   0  0  0  0  0  0  0  0  0  0  0  0
   -1.9021   -0.6180    0.0000 C   0  0  0  0  0  0  0  0  0  0  0  0
   -1.6942    0.3601    0.0000 O   0  0  0  0  0  0  0  0  0  0  0  0
   -1.1590   -1.2872    0.0000 N   0  0  0  0  0  0  0  0  0  0  0  0
   -0.2079   -0.9781    0.0000 C   0  0  0  0  0  0  0  0  0  0  0  0
    0.5352   -1.6473    0.0000 C   0  0  0  0  0  0  0  0  0  0  0  0
    1.4863   -1.3383    0.0000 C   0  0  0  0  0  0  0  0  0  0  0  0
    1.6942   -0.3601    0.0000 C   0  0  0  0  0  0  0  0  0  0  0  0
    0.9511    0.3090    0.0000 C   0  0  0  0  0  0  0  0  0  0  0  0
    0.0000    0.0000    0.0000 C   0  0  0  0  0  0  0  0  0  0  0  0
   -5.8446   -4.8164    0.0000 O   0  0  0  0  0  0  0  0  0  0  0  0
  1  2  1  0  0  0  0
  2  3  1  0  0  0  0
  3  4  2  0  0  0  0
  3  5  1  0  0  0  0
  5  6  1  0  0  0  0
  6  7  1  1  0  0  0
  6  8  1  0  0  0  0
  6 40  1  0  0  0  0
  8  9  1  0  0  0  0
  9 10  1  0  0  0  0
 10 17  1  0  0  0  0
 10 11  1  0  0  0  0
 11 12  1  0  0  0  0
 11 15  2  0  0  0  0
 12 13  1  0  0  0  0
 12 14  1  0  0  0  0
 15 16  1  0  0  0  0
 15 31  1  0  0  0  0
 16 17  2  0  0  0  0
 16 25  1  0  0  0  0
 17 18  1  0  0  0  0
 18 23  1  0  0  0  0
 18 19  2  0  0  0  0
 19 20  1  0  0  0  0
 20 21  2  0  0  0  0
 21 22  1  0  0  0  0
 21 24  1  0  0  0  0
 22 23  2  0  0  0  0
 25 30  1  0  0  0  0
 25 26  2  0  0  0  0
 26 27  1  0  0  0  0
 27 28  2  0  0  0  0
 28 29  1  0  0  0  0
 29 30  2  0  0  0  0
 31 32  2  0  0  0  0
 31 33  1  0  0  0  0
 33 34  1  0  0  0  0
 34 39  1  0  0  0  0
 34 35  2  0  0  0  0
 35 36  1  0  0  0  0
 36 37  2  0  0  0  0
 37 38  1  0  0  0  0
 38 39  2  0  0  0  0
M  END
>  <Supplier>
www.ambinter.com

>  <Ambinter_reference>
Amb2678449

>  <MW>
528.614

$$$$
Amb28536894
 OpenBabel08272101522D

 40 44  0  0  1  0  0  0  0  0999 V2000
    4.6706    0.1939    0.0000 C   0  0  0  0  0  0  0  0  0  0  0  0
    3.7195   -0.1151    0.0000 C   0  0  0  0  0  0  0  0  0  0  0  0
    2.9764    0.5540    0.0000 C   0  0  0  0  0  0  0  0  0  0  0  0
    3.5116   -1.0933    0.0000 C   0  0  0  0  0  0  0  0  0  0  0  0
    4.1808   -1.8364    0.0000 C   0  0  0  0  0  0  0  0  0  0  0  0
    5.1753   -1.7319    0.0000 C   0  0  0  0  0  0  0  0  0  0  0  0
    5.7631   -2.5409    0.0000 O   0  0  0  0  0  0  0  0  0  0  0  0
    5.5820   -0.8183    0.0000 N   0  0  0  0  0  0  0  0  0  0  0  0
    6.5765   -0.7138    0.0000 C   0  0  0  0  0  0  0  0  0  0  0  0
    6.9833    0.1997    0.0000 C   0  0  0  0  0  0  0  0  0  0  0  0
    7.9778    0.3043    0.0000 C   0  0  0  0  0  0  0  0  0  0  0  0
    8.5656   -0.5047    0.0000 C   0  0  0  0  0  0  0  0  0  0  0  0
    8.1588   -1.4183    0.0000 C   0  0  0  0  0  0  0  0  0  0  0  0
    7.1643   -1.5228    0.0000 C   0  0  0  0  0  0  0  0  0  0  0  0
    3.6808   -2.7024    0.0000 C   0  0  0  0  0  0  0  0  0  0  0  0
    4.0875   -3.6160    0.0000 C   0  0  0  0  0  0  0  0  0  0  0  0
    5.0820   -3.7205    0.0000 C   0  0  0  0  0  0  0  0  0  0  0  0
    5.4887   -4.6341    0.0000 C   0  0  0  0  0  0  0  0  0  0  0  0
    4.9010   -5.4431    0.0000 C   0  0  0  0  0  0  0  0  0  0  0  0
    3.9064   -5.3385    0.0000 C   0  0  0  0  0  0  0  0  0  0  0  0
    3.4997   -4.4250    0.0000 C   0  0  0  0  0  0  0  0  0  0  0  0
    2.7026   -2.4945    0.0000 C   0  0  0  0  0  0  0  0  0  0  0  0
    1.9595   -3.1637    0.0000 C   0  0  0  0  0  0  0  0  0  0  0  0
    2.1674   -4.1418    0.0000 C   0  0  0  0  0  0  0  0  0  0  0  0
    1.4242   -4.8109    0.0000 C   0  0  0  0  0  0  0  0  0  0  0  0
    0.4732   -4.5019    0.0000 C   0  0  0  0  0  0  0  0  0  0  0  0
   -0.2700   -5.1710    0.0000 F   0  0  0  0  0  0  0  0  0  0  0  0
    0.2653   -3.5238    0.0000 C   0  0  0  0  0  0  0  0  0  0  0  0
    1.0084   -2.8546    0.0000 C   0  0  0  0  0  0  0  0  0  0  0  0
    2.5981   -1.5000    0.0000 N   0  0  0  0  0  0  0  0  0  0  0  0
    1.7321   -1.0000    0.0000 C   0  0  0  0  0  0  0  0  0  0  0  0
    0.8660   -1.5000    0.0000 C   0  0  0  0  0  0  0  0  0  0  0  0
    0.0000   -1.0000    0.0000 C   0  0  3  0  0  0  0  0  0  0  0  0
   -0.8660   -1.5000    0.0000 C   0  0  0  0  0  0  0  0  0  0  0  0
   -1.7321   -1.0000    0.0000 C   0  0  3  0  0  0  0  0  0  0  0  0
   -2.5981   -1.5000    0.0000 O   0  0  0  0  0  0  0  0  0  0  0  0
   -1.7321   -0.0000    0.0000 C   0  0  0  0  0  0  0  0  0  0  0  0
   -0.8660    0.5000    0.0000 C   0  0  0  0  0  0  0  0  0  0  0  0
   -0.8660    1.5000    0.0000 O   0  0  0  0  0  0  0  0  0  0  0  0
    0.0000   -0.0000    0.0000 O   0  0  0  0  0  0  0  0  0  0  0  0
  1  2  1  0  0  0  0
  2  3  1  0  0  0  0
  2  4  1  0  0  0  0
  4 30  1  0  0  0  0
  4  5  2  0  0  0  0
  5  6  1  0  0  0  0
  5 15  1  0  0  0  0
  6  7  2  0  0  0  0
  6  8  1  0  0  0  0
  8  9  1  0  0  0  0
  9 14  1  0  0  0  0
  9 10  2  0  0  0  0
 10 11  1  0  0  0  0
 11 12  2  0  0  0  0
 12 13  1  0  0  0  0
 13 14  2  0  0  0  0
 15 16  1  0  0  0  0
 15 22  2  0  0  0  0
 16 21  1  0  0  0  0
 16 17  2  0  0  0  0
 17 18  1  0  0  0  0
 18 19  2  0  0  0  0
 19 20  1  0  0  0  0
 20 21  2  0  0  0  0
 22 23  1  0  0  0  0
 22 30  1  0  0  0  0
 23 29  1  0  0  0  0
 23 24  2  0  0  0  0
 24 25  1  0  0  0  0
 25 26  2  0  0  0  0
 26 27  1  0  0  0  0
 26 28  1  0  0  0  0
 28 29  2  0  0  0  0
 30 31  1  0  0  0  0
 31 32  1  0  0  0  0
 32 33  1  0  0  0  0
 33 40  1  0  0  0  0
 33 34  1  0  0  0  0
 34 35  1  0  0  0  0
 35 36  1  0  0  0  0
 35 37  1  0  0  0  0
 37 38  1  0  0  0  0
 38 39  2  0  0  0  0
 38 40  1  0  0  0  0
M  END
>  <Supplier>
www.ambinter.com

>  <Ambinter_reference>
Amb28536894

>  <MW>
540.625

$$$$
Amb28543952
 OpenBabel08272101522D

 83 90  0  0  1  0  0  0  0  0999 V2000
    4.3457   -1.7226    0.0000 C   0  0  0  0  0  0  0  0  0  0  0  0
    3.3511   -1.6180    0.0000 C   0  0  0  0  0  0  0  0  0  0  0  0
    2.9444   -0.7045    0.0000 C   0  0  0  0  0  0  0  0  0  0  0  0
    2.7634   -2.4271    0.0000 C   0  0  0  0  0  0  0  0  0  0  0  0
    1.7634   -2.4271    0.0000 C   0  0  0  0  0  0  0  0  0  0  0  0
    1.4543   -3.3781    0.0000 C   0  0  0  0  0  0  0  0  0  0  0  0
    2.2634   -3.9659    0.0000 C   0  0  0  0  0  0  0  0  0  0  0  0
    2.2634   -4.9659    0.0000 C   0  0  0  0  0  0  0  0  0  0  0  0
    1.3973   -5.4659    0.0000 C   0  0  0  0  0  0  0  0  0  0  0  0
    1.3973   -6.4659    0.0000 C   0  0  0  0  0  0  0  0  0  0  0  0
    2.2634   -6.9659    0.0000 C   0  0  0  0  0  0  0  0  0  0  0  0
    3.1294   -6.4659    0.0000 C   0  0  0  0  0  0  0  0  0  0  0  0
    3.1294   -5.4659    0.0000 C   0  0  0  0  0  0  0  0  0  0  0  0
    3.0724   -3.3781    0.0000 N   0  0  0  0  0  0  0  0  0  0  0  0
    4.0234   -3.6871    0.0000 C   0  0  0  0  0  0  0  0  0  0  0  0
    4.2313   -4.6653    0.0000 C   0  0  0  0  0  0  0  0  0  0  0  0
    5.1824   -4.9743    0.0000 C   0  0  3  0  0  0  0  0  0  0  0  0
    5.3903   -5.9524    0.0000 O   0  0  0  0  0  0  0  0  0  0  0  0
    5.9255   -4.3052    0.0000 C   0  0  0  0  0  0  0  0  0  0  0  0
    6.8766   -4.6142    0.0000 C   0  0  3  0  0  0  0  0  0  0  0  0
    7.0845   -5.5923    0.0000 O   0  0  0  0  0  0  0  0  0  0  0  0
    7.6197   -3.9450    0.0000 C   0  0  0  0  0  0  0  0  0  0  0  0
    8.5708   -4.2541    0.0000 C   0  0  0  0  0  0  0  0  0  0  0  0
    8.7787   -5.2322    0.0000 O   0  0  0  0  0  0  0  0  0  0  0  0
    9.3139   -3.5849    0.0000 O   0  0  0  0  0  0  0  0  0  0  0  0
   10.2650   -3.8939    0.0000 Ca  0  0  0  0  0  0  0  0  0  0  0  0
   11.0081   -3.2248    0.0000 O   0  0  0  0  0  0  0  0  0  0  0  0
   11.9592   -3.5338    0.0000 C   0  0  0  0  0  0  0  0  0  0  0  0
   12.1671   -4.5120    0.0000 O   0  0  0  0  0  0  0  0  0  0  0  0
   12.7023   -2.8647    0.0000 C   0  0  0  0  0  0  0  0  0  0  0  0
   13.6534   -3.1737    0.0000 C   0  0  3  0  0  0  0  0  0  0  0  0
   13.8613   -4.1519    0.0000 O   0  0  0  0  0  0  0  0  0  0  0  0
   14.3965   -2.5046    0.0000 C   0  0  0  0  0  0  0  0  0  0  0  0
   15.3476   -2.8136    0.0000 C   0  0  3  0  0  0  0  0  0  0  0  0
   15.5555   -3.7918    0.0000 O   0  0  0  0  0  0  0  0  0  0  0  0
   16.0908   -2.1445    0.0000 C   0  0  0  0  0  0  0  0  0  0  0  0
   17.0418   -2.4535    0.0000 C   0  0  0  0  0  0  0  0  0  0  0  0
   17.7850   -1.7844    0.0000 N   0  0  0  0  0  0  0  0  0  0  0  0
   17.6804   -0.7898    0.0000 C   0  0  0  0  0  0  0  0  0  0  0  0
   18.5940   -0.3831    0.0000 C   0  0  0  0  0  0  0  0  0  0  0  0
   19.2631   -1.1262    0.0000 C   0  0  0  0  0  0  0  0  0  0  0  0
   18.7631   -1.9923    0.0000 C   0  0  0  0  0  0  0  0  0  0  0  0
   19.1698   -2.9058    0.0000 C   0  0  0  0  0  0  0  0  0  0  0  0
   18.5821   -3.7148    0.0000 C   0  0  0  0  0  0  0  0  0  0  0  0
   20.1644   -3.0103    0.0000 C   0  0  0  0  0  0  0  0  0  0  0  0
   20.2576   -1.0217    0.0000 C   0  0  0  0  0  0  0  0  0  0  0  0
   20.8454   -1.8307    0.0000 O   0  0  0  0  0  0  0  0  0  0  0  0
   20.6644   -0.1082    0.0000 N   0  0  0  0  0  0  0  0  0  0  0  0
   21.6589   -0.0036    0.0000 C   0  0  0  0  0  0  0  0  0  0  0  0
   22.0656    0.9099    0.0000 C   0  0  0  0  0  0  0  0  0  0  0  0
   23.0601    1.0144    0.0000 C   0  0  0  0  0  0  0  0  0  0  0  0
   23.6479    0.2054    0.0000 C   0  0  0  0  0  0  0  0  0  0  0  0
   23.2412   -0.7081    0.0000 C   0  0  0  0  0  0  0  0  0  0  0  0
   22.2467   -0.8127    0.0000 C   0  0  0  0  0  0  0  0  0  0  0  0
   18.8019    0.5950    0.0000 C   0  0  0  0  0  0  0  0  0  0  0  0
   18.0587    1.2642    0.0000 C   0  0  0  0  0  0  0  0  0  0  0  0
   18.2666    2.2423    0.0000 C   0  0  0  0  0  0  0  0  0  0  0  0
   19.2177    2.5513    0.0000 C   0  0  0  0  0  0  0  0  0  0  0  0
   19.4256    3.5295    0.0000 F   0  0  0  0  0  0  0  0  0  0  0  0
   19.9608    1.8822    0.0000 C   0  0  0  0  0  0  0  0  0  0  0  0
   19.7529    0.9041    0.0000 C   0  0  0  0  0  0  0  0  0  0  0  0
   16.8144   -0.2898    0.0000 C   0  0  0  0  0  0  0  0  0  0  0  0
   15.9484   -0.7898    0.0000 C   0  0  0  0  0  0  0  0  0  0  0  0
   15.0823   -0.2898    0.0000 C   0  0  0  0  0  0  0  0  0  0  0  0
   15.0823    0.7102    0.0000 C   0  0  0  0  0  0  0  0  0  0  0  0
   15.9484    1.2102    0.0000 C   0  0  0  0  0  0  0  0  0  0  0  0
   16.8144    0.7102    0.0000 C   0  0  0  0  0  0  0  0  0  0  0  0
    0.5033   -3.6871    0.0000 C   0  0  0  0  0  0  0  0  0  0  0  0
   -0.2399   -3.0180    0.0000 C   0  0  0  0  0  0  0  0  0  0  0  0
   -1.1909   -3.3270    0.0000 C   0  0  0  0  0  0  0  0  0  0  0  0
   -1.3988   -4.3052    0.0000 C   0  0  0  0  0  0  0  0  0  0  0  0
   -2.3499   -4.6142    0.0000 F   0  0  0  0  0  0  0  0  0  0  0  0
   -0.6557   -4.9743    0.0000 C   0  0  0  0  0  0  0  0  0  0  0  0
    0.2954   -4.6653    0.0000 C   0  0  0  0  0  0  0  0  0  0  0  0
    1.1756   -1.6180    0.0000 C   0  0  0  0  0  0  0  0  0  0  0  0
    0.1810   -1.7226    0.0000 O   0  0  0  0  0  0  0  0  0  0  0  0
    1.5823   -0.7045    0.0000 N   0  0  0  0  0  0  0  0  0  0  0  0
    0.9945    0.1045    0.0000 C   0  0  0  0  0  0  0  0  0  0  0  0
    1.4013    1.0181    0.0000 C   0  0  0  0  0  0  0  0  0  0  0  0
    0.8135    1.8271    0.0000 C   0  0  0  0  0  0  0  0  0  0  0  0
   -0.1810    1.7226    0.0000 C   0  0  0  0  0  0  0  0  0  0  0  0
   -0.5878    0.8090    0.0000 C   0  0  0  0  0  0  0  0  0  0  0  0
   -0.0000   -0.0000    0.0000 C   0  0  0  0  0  0  0  0  0  0  0  0
  1  2  1  0  0  0  0
  2  3  1  0  0  0  0
  2  4  1  0  0  0  0
  4 14  1  0  0  0  0
  4  5  2  0  0  0  0
  5  6  1  0  0  0  0
  5 75  1  0  0  0  0
  6  7  2  0  0  0  0
  6 68  1  0  0  0  0
  7  8  1  0  0  0  0
  7 14  1  0  0  0  0
  8 13  1  0  0  0  0
  8  9  2  0  0  0  0
  9 10  1  0  0  0  0
 10 11  2  0  0  0  0
 11 12  1  0  0  0  0
 12 13  2  0  0  0  0
 14 15  1  0  0  0  0
 15 16  1  0  0  0  0
 16 17  1  0  0  0  0
 17 18  1  0  0  0  0
 17 19  1  0  0  0  0
 19 20  1  0  0  0  0
 20 21  1  0  0  0  0
 20 22  1  0  0  0  0
 22 23  1  0  0  0  0
 23 24  2  0  0  0  0
 23 25  1  0  0  0  0
 25 26  1  0  0  0  0
 26 27  1  0  0  0  0
 27 28  1  0  0  0  0
 28 29  2  0  0  0  0
 28 30  1  0  0  0  0
 30 31  1  0  0  0  0
 31 32  1  0  0  0  0
 31 33  1  0  0  0  0
 33 34  1  0  0  0  0
 34 35  1  0  0  0  0
 34 36  1  0  0  0  0
 36 37  1  0  0  0  0
 37 38  1  0  0  0  0
 38 42  1  0  0  0  0
 38 39  1  0  0  0  0
 39 40  2  0  0  0  0
 39 62  1  0  0  0  0
 40 41  1  0  0  0  0
 40 55  1  0  0  0  0
 41 42  2  0  0  0  0
 41 46  1  0  0  0  0
 42 43  1  0  0  0  0
 43 44  1  0  0  0  0
 43 45  1  0  0  0  0
 46 47  2  0  0  0  0
 46 48  1  0  0  0  0
 48 49  1  0  0  0  0
 49 54  1  0  0  0  0
 49 50  2  0  0  0  0
 50 51  1  0  0  0  0
 51 52  2  0  0  0  0
 52 53  1  0  0  0  0
 53 54  2  0  0  0  0
 55 61  1  0  0  0  0
 55 56  2  0  0  0  0
 56 57  1  0  0  0  0
 57 58  2  0  0  0  0
 58 59  1  0  0  0  0
 58 60  1  0  0  0  0
 60 61  2  0  0  0  0
 62 67  1  0  0  0  0
 62 63  2  0  0  0  0
 63 64  1  0  0  0  0
 64 65  2  0  0  0  0
 65 66  1  0  0  0  0
 66 67  2  0  0  0  0
 68 74  1  0  0  0  0
 68 69  2  0  0  0  0
 69 70  1  0  0  0  0
 70 71  2  0  0  0  0
 71 72  1  0  0  0  0
 71 73  1  0  0  0  0
 73 74  2  0  0  0  0
 75 76  2  0  0  0  0
 75 77  1  0  0  0  0
 77 78  1  0  0  0  0
 78 83  1  0  0  0  0
 78 79  2  0  0  0  0
 79 80  1  0  0  0  0
 80 81  2  0  0  0  0
 81 82  1  0  0  0  0
 82 83  2  0  0  0  0
M  END
>  <Supplier>
www.ambinter.com

>  <Ambinter_reference>
Amb28543952

>  <MW>
1155.34

$$$$
Amb28992585
 OpenBabel08272101522D

 85 90  0  0  1  0  0  0  0  0999 V2000
    7.6024    1.5015    0.0000 Ca  0  2  0  0  0 15  0  0  0  0  0  0
   12.4890  -13.3715    0.0000 C   0  0  0  0  0  0  0  0  0  0  0  0
   10.4999  -13.1625    0.0000 C   0  0  0  0  0  0  0  0  0  0  0  0
    9.6865  -11.3354    0.0000 C   0  0  0  0  0  0  0  0  0  0  0  0
    9.3244  -14.7805    0.0000 C   0  0  0  0  0  0  0  0  0  0  0  0
    9.9424  -16.6826    0.0000 C   0  0  0  0  0  0  0  0  0  0  0  0
    8.3244  -17.8582    0.0000 C   0  0  0  0  0  0  0  0  0  0  0  0
    6.7063  -16.6826    0.0000 C   0  0  0  0  0  0  0  0  0  0  0  0
    4.8042  -17.3006    0.0000 C   0  0  0  0  0  0  0  0  0  0  0  0
    4.3884  -19.2569    0.0000 C   0  0  0  0  0  0  0  0  0  0  0  0
    2.4863  -19.8750    0.0000 C   0  0  0  0  0  0  0  0  0  0  0  0
    1.0000  -18.5367    0.0000 C   0  0  0  0  0  0  0  0  0  0  0  0
    1.4158  -16.5804    0.0000 C   0  0  0  0  0  0  0  0  0  0  0  0
    3.3179  -15.9624    0.0000 C   0  0  0  0  0  0  0  0  0  0  0  0
    7.3244  -14.7805    0.0000 N   0  0  0  0  0  0  0  0  0  0  0  0
    6.1488  -13.1625    0.0000 C   0  0  0  0  0  0  0  0  0  0  0  0
    6.9623  -11.3354    0.0000 C   0  0  0  0  0  0  0  0  0  0  0  0
    5.7867   -9.7173    0.0000 C   0  0  1  0  0  0  0  0  0  0  0  0
    3.9596   -8.9039    0.0000 H   0  0  0  0  0  0  0  0  0  0  0  0
    4.1687  -10.8929    0.0000 O   0  0  0  0  0  0  0  0  0  0  0  0
    6.6002   -7.8902    0.0000 C   0  0  0  0  0  0  0  0  0  0  0  0
    5.4246   -6.2722    0.0000 C   0  0  1  0  0  0  0  0  0  0  0  0
    3.5975   -5.4587    0.0000 H   0  0  0  0  0  0  0  0  0  0  0  0
    3.8066   -7.4478    0.0000 O   0  0  0  0  0  0  0  0  0  0  0  0
    6.2381   -4.4451    0.0000 C   0  0  0  0  0  0  0  0  0  0  0  0
    5.0625   -2.8271    0.0000 C   0  0  0  0  0  0  0  0  0  0  0  0
    5.8760   -1.0000    0.0000 O   0  5  0  0  0  0  0  0  0  0  0  0
    3.0735   -3.0361    0.0000 O   0  0  0  0  0  0  0  0  0  0  0  0
    8.3244  -19.8582    0.0000 C   0  0  0  0  0  0  0  0  0  0  0  0
   10.0564  -20.8582    0.0000 C   0  0  0  0  0  0  0  0  0  0  0  0
   10.0564  -22.8582    0.0000 C   0  0  0  0  0  0  0  0  0  0  0  0
    8.3244  -23.8582    0.0000 C   0  0  0  0  0  0  0  0  0  0  0  0
    6.5923  -22.8582    0.0000 C   0  0  0  0  0  0  0  0  0  0  0  0
    6.5923  -20.8582    0.0000 C   0  0  0  0  0  0  0  0  0  0  0  0
   11.8445  -17.3006    0.0000 C   0  0  0  0  0  0  0  0  0  0  0  0
   12.2603  -19.2569    0.0000 O   0  0  0  0  0  0  0  0  0  0  0  0
   13.3308  -15.9624    0.0000 N   0  0  0  0  0  0  0  0  0  0  0  0
   15.2329  -16.5804    0.0000 C   0  0  0  0  0  0  0  0  0  0  0  0
   15.6487  -18.5367    0.0000 C   0  0  0  0  0  0  0  0  0  0  0  0
   17.5509  -19.1547    0.0000 C   0  0  0  0  0  0  0  0  0  0  0  0
   19.0371  -17.8165    0.0000 C   0  0  0  0  0  0  0  0  0  0  0  0
   18.6213  -15.8602    0.0000 C   0  0  0  0  0  0  0  0  0  0  0  0
   16.7192  -15.2422    0.0000 C   0  0  0  0  0  0  0  0  0  0  0  0
    1.0000  -25.8582    0.0000 C   0  0  0  0  0  0  0  0  0  0  0  0
    1.0000  -25.8582    0.0000 C   0  0  0  0  0  0  0  0  0  0  0  0
    1.0000  -25.8582    0.0000 C   0  0  0  0  0  0  0  0  0  0  0  0
    1.0000  -25.8582    0.0000 C   0  0  0  0  0  0  0  0  0  0  0  0
    1.0000  -25.8582    0.0000 C   0  0  0  0  0  0  0  0  0  0  0  0
    1.0000  -25.8582    0.0000 C   0  0  0  0  0  0  0  0  0  0  0  0
    1.0000  -25.8582    0.0000 C   0  0  0  0  0  0  0  0  0  0  0  0
    1.0000  -25.8582    0.0000 C   0  0  0  0  0  0  0  0  0  0  0  0
    1.0000  -25.8582    0.0000 C   0  0  0  0  0  0  0  0  0  0  0  0
    1.0000  -25.8582    0.0000 C   0  0  0  0  0  0  0  0  0  0  0  0
    1.0000  -25.8582    0.0000 C   0  0  0  0  0  0  0  0  0  0  0  0
    1.0000  -25.8582    0.0000 C   0  0  0  0  0  0  0  0  0  0  0  0
    1.0000  -25.8582    0.0000 C   0  0  0  0  0  0  0  0  0  0  0  0
    1.0000  -25.8582    0.0000 N   0  0  0  0  0  0  0  0  0  0  0  0
    1.0000  -25.8582    0.0000 C   0  0  0  0  0  0  0  0  0  0  0  0
    1.0000  -25.8582    0.0000 C   0  0  0  0  0  0  0  0  0  0  0  0
    1.0000  -25.8582    0.0000 C   0  0  1  0  0  0  0  0  0  0  0  0
    1.0000  -25.8582    0.0000 H   0  0  0  0  0  0  0  0  0  0  0  0
    1.0000  -25.8582    0.0000 O   0  0  0  0  0  0  0  0  0  0  0  0
    1.0000  -25.8582    0.0000 C   0  0  0  0  0  0  0  0  0  0  0  0
    1.0000  -25.8582    0.0000 C   0  0  1  0  0  0  0  0  0  0  0  0
    1.0000  -25.8582    0.0000 H   0  0  0  0  0  0  0  0  0  0  0  0
    1.0000  -25.8582    0.0000 O   0  0  0  0  0  0  0  0  0  0  0  0
    1.0000  -25.8582    0.0000 C   0  0  0  0  0  0  0  0  0  0  0  0
    1.0000  -25.8582    0.0000 C   0  0  0  0  0  0  0  0  0  0  0  0
    1.0000  -25.8582    0.0000 O   0  5  0  0  0  0  0  0  0  0  0  0
    1.0000  -25.8582    0.0000 O   0  0  0  0  0  0  0  0  0  0  0  0
    1.0000  -25.8582    0.0000 C   0  0  0  0  0  0  0  0  0  0  0  0
    1.0000  -25.8582    0.0000 C   0  0  0  0  0  0  0  0  0  0  0  0
    1.0000  -25.8582    0.0000 C   0  0  0  0  0  0  0  0  0  0  0  0
    1.0000  -25.8582    0.0000 C   0  0  0  0  0  0  0  0  0  0  0  0
    1.0000  -25.8582    0.0000 C   0  0  0  0  0  0  0  0  0  0  0  0
    1.0000  -25.8582    0.0000 C   0  0  0  0  0  0  0  0  0  0  0  0
    1.0000  -25.8582    0.0000 C   0  0  0  0  0  0  0  0  0  0  0  0
    1.0000  -25.8582    0.0000 O   0  0  0  0  0  0  0  0  0  0  0  0
    1.0000  -25.8582    0.0000 N   0  0  0  0  0  0  0  0  0  0  0  0
    1.0000  -25.8582    0.0000 C   0  0  0  0  0  0  0  0  0  0  0  0
    1.0000  -25.8582    0.0000 C   0  0  0  0  0  0  0  0  0  0  0  0
    1.0000  -25.8582    0.0000 C   0  0  0  0  0  0  0  0  0  0  0  0
    1.0000  -25.8582    0.0000 C   0  0  0  0  0  0  0  0  0  0  0  0
    1.0000  -25.8582    0.0000 C   0  0  0  0  0  0  0  0  0  0  0  0
    1.0000  -25.8582    0.0000 C   0  0  0  0  0  0  0  0  0  0  0  0
  2  3  1  0  0  0  0
  3  4  1  0  0  0  0
  3  5  1  0  0  0  0
  5 15  1  0  0  0  0
  5  6  2  0  0  0  0
  6  7  1  0  0  0  0
  6 35  1  0  0  0  0
  7  8  2  0  0  0  0
  7 29  1  0  0  0  0
  8  9  1  0  0  0  0
  8 15  1  0  0  0  0
  9 14  1  0  0  0  0
  9 10  2  0  0  0  0
 10 11  1  0  0  0  0
 11 12  2  0  0  0  0
 12 13  1  0  0  0  0
 13 14  2  0  0  0  0
 15 16  1  0  0  0  0
 16 17  1  0  0  0  0
 17 18  1  0  0  0  0
 18 19  1  6  0  0  0
 18 20  1  0  0  0  0
 18 21  1  0  0  0  0
 21 22  1  0  0  0  0
 22 23  1  6  0  0  0
 22 24  1  0  0  0  0
 22 25  1  0  0  0  0
 25 26  1  0  0  0  0
 26 27  1  0  0  0  0
 26 28  2  0  0  0  0
 29 34  1  0  0  0  0
 29 30  2  0  0  0  0
 30 31  1  0  0  0  0
 31 32  2  0  0  0  0
 32 33  1  0  0  0  0
 33 34  2  0  0  0  0
 35 36  2  0  0  0  0
 35 37  1  0  0  0  0
 37 38  1  0  0  0  0
 38 43  1  0  0  0  0
 38 39  2  0  0  0  0
 39 40  1  0  0  0  0
 40 41  2  0  0  0  0
 41 42  1  0  0  0  0
 42 43  2  0  0  0  0
 44 45  1  0  0  0  0
 45 46  1  0  0  0  0
 45 47  1  0  0  0  0
 47 57  1  0  0  0  0
 47 48  2  0  0  0  0
 48 49  1  0  0  0  0
 48 77  1  0  0  0  0
 49 50  2  0  0  0  0
 49 71  1  0  0  0  0
 50 51  1  0  0  0  0
 50 57  1  0  0  0  0
 51 56  1  0  0  0  0
 51 52  2  0  0  0  0
 52 53  1  0  0  0  0
 53 54  2  0  0  0  0
 54 55  1  0  0  0  0
 55 56  2  0  0  0  0
 57 58  1  0  0  0  0
 58 59  1  0  0  0  0
 59 60  1  0  0  0  0
 60 61  1  1  0  0  0
 60 62  1  0  0  0  0
 60 63  1  0  0  0  0
 63 64  1  0  0  0  0
 64 65  1  1  0  0  0
 64 66  1  0  0  0  0
 64 67  1  0  0  0  0
 67 68  1  0  0  0  0
 68 69  1  0  0  0  0
 68 70  2  0  0  0  0
 71 76  1  0  0  0  0
 71 72  2  0  0  0  0
 72 73  1  0  0  0  0
 73 74  2  0  0  0  0
 74 75  1  0  0  0  0
 75 76  2  0  0  0  0
 77 78  2  0  0  0  0
 77 79  1  0  0  0  0
 79 80  1  0  0  0  0
 80 85  1  0  0  0  0
 80 81  2  0  0  0  0
 81 82  1  0  0  0  0
 82 83  2  0  0  0  0
 83 84  1  0  0  0  0
 84 85  2  0  0  0  0
M  CHG  3   1   2  27  -1  69  -1
M  END
>  <Supplier>
www.ambinter.com

>  <Ambinter_reference>
Amb28992585

>  <MW>
1119.36

$$$$
Amb32411857
 OpenBabel08272101522D

 44 47  0  0  1  0  0  0  0  0999 V2000
   -2.5823   -0.7045    0.0000 C   0  0  0  0  0  0  0  0  0  0  0  0
   -1.5878   -0.8090    0.0000 C   0  0  0  0  0  0  0  0  0  0  0  0
   -1.1810   -1.7226    0.0000 C   0  0  0  0  0  0  0  0  0  0  0  0
   -1.0000   -0.0000    0.0000 C   0  0  0  0  0  0  0  0  0  0  0  0
   -1.3090    0.9511    0.0000 C   0  0  0  0  0  0  0  0  0  0  0  0
   -2.2601    1.2601    0.0000 C   0  0  0  0  0  0  0  0  0  0  0  0
   -2.4680    2.2382    0.0000 O   0  0  0  0  0  0  0  0  0  0  0  0
   -3.0032    0.5909    0.0000 N   0  0  0  0  0  0  0  0  0  0  0  0
   -3.9543    0.9000    0.0000 C   0  0  0  0  0  0  0  0  0  0  0  0
   -4.6974    0.2308    0.0000 C   0  0  0  0  0  0  0  0  0  0  0  0
   -5.6485    0.5398    0.0000 C   0  0  0  0  0  0  0  0  0  0  0  0
   -5.8564    1.5180    0.0000 C   0  0  0  0  0  0  0  0  0  0  0  0
   -5.1132    2.1871    0.0000 C   0  0  0  0  0  0  0  0  0  0  0  0
   -4.1622    1.8781    0.0000 C   0  0  0  0  0  0  0  0  0  0  0  0
   -3.4190    2.5472    0.0000 O   0  0  0  0  0  0  0  0  0  0  0  0
   -0.5000    1.5388    0.0000 C   0  0  0  0  0  0  0  0  0  0  0  0
   -0.5000    2.5388    0.0000 C   0  0  0  0  0  0  0  0  0  0  0  0
   -1.3660    3.0388    0.0000 C   0  0  0  0  0  0  0  0  0  0  0  0
   -1.3660    4.0388    0.0000 C   0  0  0  0  0  0  0  0  0  0  0  0
   -0.5000    4.5388    0.0000 C   0  0  0  0  0  0  0  0  0  0  0  0
    0.3660    4.0388    0.0000 C   0  0  0  0  0  0  0  0  0  0  0  0
    0.3660    3.0388    0.0000 C   0  0  0  0  0  0  0  0  0  0  0  0
    0.3090    0.9511    0.0000 C   0  0  0  0  0  0  0  0  0  0  0  0
    1.2601    1.2601    0.0000 C   0  0  0  0  0  0  0  0  0  0  0  0
    1.4680    2.2382    0.0000 C   0  0  0  0  0  0  0  0  0  0  0  0
    2.4190    2.5472    0.0000 C   0  0  0  0  0  0  0  0  0  0  0  0
    3.1622    1.8781    0.0000 C   0  0  0  0  0  0  0  0  0  0  0  0
    4.1132    2.1871    0.0000 F   0  0  0  0  0  0  0  0  0  0  0  0
    2.9543    0.9000    0.0000 C   0  0  0  0  0  0  0  0  0  0  0  0
    2.0032    0.5909    0.0000 C   0  0  0  0  0  0  0  0  0  0  0  0
    0.0000   -0.0000    0.0000 N   0  0  0  0  0  0  0  0  0  0  0  0
    0.5878   -0.8090    0.0000 C   0  0  0  0  0  0  0  0  0  0  0  0
    1.5823   -0.7045    0.0000 C   0  0  0  0  0  0  0  0  0  0  0  0
    2.1701   -1.5135    0.0000 C   0  0  1  0  0  0  0  0  0  0  0  0
    3.0836   -1.9202    0.0000 H   0  0  0  0  0  0  0  0  0  0  0  0
    2.9791   -0.9257    0.0000 O   0  0  0  0  0  0  0  0  0  0  0  0
    1.7634   -2.4271    0.0000 C   0  0  0  0  0  0  0  0  0  0  0  0
    2.3511   -3.2361    0.0000 C   0  0  1  0  0  0  0  0  0  0  0  0
    3.2647   -3.6428    0.0000 H   0  0  0  0  0  0  0  0  0  0  0  0
    3.1602   -2.6483    0.0000 O   0  0  0  0  0  0  0  0  0  0  0  0
    1.9444   -4.1496    0.0000 C   0  0  0  0  0  0  0  0  0  0  0  0
    2.5322   -4.9586    0.0000 C   0  0  0  0  0  0  0  0  0  0  0  0
    2.1255   -5.8722    0.0000 O   0  0  0  0  0  0  0  0  0  0  0  0
    3.5267   -4.8541    0.0000 O   0  0  0  0  0  0  0  0  0  0  0  0
  1  2  1  0  0  0  0
  2  3  1  0  0  0  0
  2  4  1  0  0  0  0
  4 31  1  0  0  0  0
  4  5  2  0  0  0  0
  5  6  1  0  0  0  0
  5 16  1  0  0  0  0
  6  7  2  0  0  0  0
  6  8  1  0  0  0  0
  8  9  1  0  0  0  0
  9 14  1  0  0  0  0
  9 10  2  0  0  0  0
 10 11  1  0  0  0  0
 11 12  2  0  0  0  0
 12 13  1  0  0  0  0
 13 14  2  0  0  0  0
 14 15  1  0  0  0  0
 16 17  1  0  0  0  0
 16 23  2  0  0  0  0
 17 22  1  0  0  0  0
 17 18  2  0  0  0  0
 18 19  1  0  0  0  0
 19 20  2  0  0  0  0
 20 21  1  0  0  0  0
 21 22  2  0  0  0  0
 23 24  1  0  0  0  0
 23 31  1  0  0  0  0
 24 30  1  0  0  0  0
 24 25  2  0  0  0  0
 25 26  1  0  0  0  0
 26 27  2  0  0  0  0
 27 28  1  0  0  0  0
 27 29  1  0  0  0  0
 29 30  2  0  0  0  0
 31 32  1  0  0  0  0
 32 33  1  0  0  0  0
 33 34  1  0  0  0  0
 34 35  1  6  0  0  0
 34 36  1  0  0  0  0
 34 37  1  0  0  0  0
 37 38  1  0  0  0  0
 38 39  1  6  0  0  0
 38 40  1  0  0  0  0
 38 41  1  0  0  0  0
 41 42  1  0  0  0  0
 42 43  1  0  0  0  0
 42 44  2  0  0  0  0
M  END
>  <Supplier>
www.ambinter.com

>  <Ambinter_reference>
Amb32411857

>  <MW>
574.639

$$$$
Amb33825939
 OpenBabel08272101522D

 42 45  0  0  1  0  0  0  0  0999 V2000
   -2.5823   -0.7045    0.0000 C   0  0  0  0  0  0  0  0  0  0  0  0
   -1.5878   -0.8090    0.0000 C   0  0  0  0  0  0  0  0  0  0  0  0
   -1.1810   -1.7226    0.0000 C   0  0  0  0  0  0  0  0  0  0  0  0
   -1.0000    0.0000    0.0000 C   0  0  0  0  0  0  0  0  0  0  0  0
   -1.3090    0.9511    0.0000 C   0  0  0  0  0  0  0  0  0  0  0  0
   -2.2601    1.2601    0.0000 C   0  0  0  0  0  0  0  0  0  0  0  0
   -2.4680    2.2382    0.0000 O   0  0  0  0  0  0  0  0  0  0  0  0
   -3.0032    0.5909    0.0000 N   0  0  0  0  0  0  0  0  0  0  0  0
   -3.9543    0.9000    0.0000 C   0  0  0  0  0  0  0  0  0  0  0  0
   -4.6974    0.2308    0.0000 C   0  0  0  0  0  0  0  0  0  0  0  0
   -5.6485    0.5398    0.0000 C   0  0  0  0  0  0  0  0  0  0  0  0
   -5.8564    1.5180    0.0000 C   0  0  0  0  0  0  0  0  0  0  0  0
   -5.1132    2.1871    0.0000 C   0  0  0  0  0  0  0  0  0  0  0  0
   -4.1622    1.8781    0.0000 C   0  0  0  0  0  0  0  0  0  0  0  0
   -0.5000    1.5388    0.0000 C   0  0  0  0  0  0  0  0  0  0  0  0
   -0.5000    2.5388    0.0000 C   0  0  0  0  0  0  0  0  0  0  0  0
   -1.3660    3.0388    0.0000 C   0  0  0  0  0  0  0  0  0  0  0  0
   -1.3660    4.0388    0.0000 C   0  0  0  0  0  0  0  0  0  0  0  0
   -0.5000    4.5388    0.0000 C   0  0  0  0  0  0  0  0  0  0  0  0
    0.3660    4.0388    0.0000 C   0  0  0  0  0  0  0  0  0  0  0  0
    0.3660    3.0388    0.0000 C   0  0  0  0  0  0  0  0  0  0  0  0
    0.3090    0.9511    0.0000 C   0  0  0  0  0  0  0  0  0  0  0  0
    1.2601    1.2601    0.0000 C   0  0  0  0  0  0  0  0  0  0  0  0
    1.4680    2.2382    0.0000 C   0  0  0  0  0  0  0  0  0  0  0  0
    2.4190    2.5472    0.0000 C   0  0  0  0  0  0  0  0  0  0  0  0
    3.1622    1.8781    0.0000 C   0  0  0  0  0  0  0  0  0  0  0  0
    4.1132    2.1871    0.0000 F   0  0  0  0  0  0  0  0  0  0  0  0
    2.9543    0.9000    0.0000 C   0  0  0  0  0  0  0  0  0  0  0  0
    2.0032    0.5909    0.0000 C   0  0  0  0  0  0  0  0  0  0  0  0
    0.0000   -0.0000    0.0000 N   0  0  0  0  0  0  0  0  0  0  0  0
    0.5878   -0.8090    0.0000 C   0  0  0  0  0  0  0  0  0  0  0  0
    1.5823   -0.7045    0.0000 C   0  0  0  0  0  0  0  0  0  0  0  0
    2.1701   -1.5135    0.0000 C   0  0  0  0  0  0  0  0  0  0  0  0
    1.7634   -2.4271    0.0000 O   0  0  0  0  0  0  0  0  0  0  0  0
    3.1646   -1.4090    0.0000 C   0  0  0  0  0  0  0  0  0  0  0  0
    3.7524   -2.2180    0.0000 C   0  0  1  0  0  0  0  0  0  0  0  0
    4.6659   -2.6247    0.0000 H   0  0  0  0  0  0  0  0  0  0  0  0
    4.5614   -1.6302    0.0000 O   0  0  0  0  0  0  0  0  0  0  0  0
    3.3457   -3.1315    0.0000 C   0  0  0  0  0  0  0  0  0  0  0  0
    3.9334   -3.9406    0.0000 C   0  0  0  0  0  0  0  0  0  0  0  0
    3.5267   -4.8541    0.0000 O   0  0  0  0  0  0  0  0  0  0  0  0
    4.9280   -3.8360    0.0000 O   0  0  0  0  0  0  0  0  0  0  0  0
  1  2  1  0  0  0  0
  2  3  1  0  0  0  0
  2  4  1  0  0  0  0
  4 30  1  0  0  0  0
  4  5  2  0  0  0  0
  5  6  1  0  0  0  0
  5 15  1  0  0  0  0
  6  7  2  0  0  0  0
  6  8  1  0  0  0  0
  8  9  1  0  0  0  0
  9 14  1  0  0  0  0
  9 10  2  0  0  0  0
 10 11  1  0  0  0  0
 11 12  2  0  0  0  0
 12 13  1  0  0  0  0
 13 14  2  0  0  0  0
 15 16  1  0  0  0  0
 15 22  2  0  0  0  0
 16 21  1  0  0  0  0
 16 17  2  0  0  0  0
 17 18  1  0  0  0  0
 18 19  2  0  0  0  0
 19 20  1  0  0  0  0
 20 21  2  0  0  0  0
 22 23  1  0  0  0  0
 22 30  1  0  0  0  0
 23 29  1  0  0  0  0
 23 24  2  0  0  0  0
 24 25  1  0  0  0  0
 25 26  2  0  0  0  0
 26 27  1  0  0  0  0
 26 28  1  0  0  0  0
 28 29  2  0  0  0  0
 30 31  1  0  0  0  0
 31 32  1  0  0  0  0
 32 33  1  0  0  0  0
 33 34  2  0  0  0  0
 33 35  1  0  0  0  0
 35 36  1  0  0  0  0
 36 37  1  6  0  0  0
 36 38  1  0  0  0  0
 36 39  1  0  0  0  0
 39 40  1  0  0  0  0
 40 41  1  0  0  0  0
 40 42  2  0  0  0  0
M  END
>  <Supplier>
www.ambinter.com

>  <Ambinter_reference>
Amb33825939

>  <MW>
556.624

$$$$
Amb33845026
 OpenBabel08272101522D

 51 55  0  0  1  0  0  0  0  0999 V2000
    0.1109   -3.8966    0.0000 C   0  0  0  0  0  0  0  0  0  0  0  0
   -0.5184   -3.1195    0.0000 C   0  0  0  0  0  0  0  0  0  0  0  0
    0.4693   -2.9631    0.0000 C   0  0  0  0  0  0  0  0  0  0  0  0
   -1.2955   -3.7488    0.0000 C   0  0  0  0  0  0  0  0  0  0  0  0
   -0.6748   -2.1318    0.0000 O   0  0  0  0  0  0  0  0  0  0  0  0
   -1.6084   -1.7734    0.0000 C   0  0  0  0  0  0  0  0  0  0  0  0
   -2.3855   -2.4028    0.0000 O   0  0  0  0  0  0  0  0  0  0  0  0
   -1.7648   -0.7858    0.0000 C   0  0  0  0  0  0  0  0  0  0  0  0
   -0.9877   -0.1564    0.0000 C   0  0  1  0  0  0  0  0  0  0  0  0
   -0.8313   -1.1441    0.0000 H   0  0  0  0  0  0  0  0  0  0  0  0
   -1.6170    0.6207    0.0000 C   0  0  0  0  0  0  0  0  0  0  0  0
   -1.2586    1.5543    0.0000 C   0  0  1  0  0  0  0  0  0  0  0  0
   -0.7815    2.4331    0.0000 H   0  0  0  0  0  0  0  0  0  0  0  0
   -2.2532    1.6588    0.0000 C   0  0  0  0  0  0  0  0  0  0  0  0
   -2.6599    2.5724    0.0000 C   0  0  0  0  0  0  0  0  0  0  0  0
   -3.6544    2.6769    0.0000 N   0  0  0  0  0  0  0  0  0  0  0  0
   -4.3236    1.9337    0.0000 C   0  0  0  0  0  0  0  0  0  0  0  0
   -4.1156    0.9556    0.0000 C   0  0  0  0  0  0  0  0  0  0  0  0
   -4.8588    0.2865    0.0000 C   0  0  0  0  0  0  0  0  0  0  0  0
   -3.1646    0.6466    0.0000 C   0  0  0  0  0  0  0  0  0  0  0  0
   -5.2371    2.3405    0.0000 C   0  0  0  0  0  0  0  0  0  0  0  0
   -5.1326    3.3350    0.0000 C   0  0  0  0  0  0  0  0  0  0  0  0
   -5.8757    4.0041    0.0000 C   0  0  0  0  0  0  0  0  0  0  0  0
   -6.8268    3.6951    0.0000 C   0  0  0  0  0  0  0  0  0  0  0  0
   -7.5699    4.3643    0.0000 C   0  0  0  0  0  0  0  0  0  0  0  0
   -7.3620    5.3424    0.0000 C   0  0  0  0  0  0  0  0  0  0  0  0
   -8.1051    6.0115    0.0000 F   0  0  0  0  0  0  0  0  0  0  0  0
   -6.4109    5.6514    0.0000 C   0  0  0  0  0  0  0  0  0  0  0  0
   -5.6678    4.9823    0.0000 C   0  0  0  0  0  0  0  0  0  0  0  0
   -4.1544    3.5429    0.0000 C   0  0  0  0  0  0  0  0  0  0  0  0
   -3.7477    4.4565    0.0000 C   0  0  0  0  0  0  0  0  0  0  0  0
   -4.3355    5.2655    0.0000 C   0  0  0  0  0  0  0  0  0  0  0  0
   -3.9287    6.1790    0.0000 C   0  0  0  0  0  0  0  0  0  0  0  0
   -2.9342    6.2836    0.0000 C   0  0  0  0  0  0  0  0  0  0  0  0
   -2.5275    7.1971    0.0000 F   0  0  0  0  0  0  0  0  0  0  0  0
   -2.3464    5.4745    0.0000 C   0  0  0  0  0  0  0  0  0  0  0  0
   -2.7532    4.5610    0.0000 C   0  0  0  0  0  0  0  0  0  0  0  0
   -6.1031    1.8405    0.0000 C   0  0  0  0  0  0  0  0  0  0  0  0
   -6.9691    2.3405    0.0000 O   0  0  0  0  0  0  0  0  0  0  0  0
   -6.1031    0.8405    0.0000 N   0  0  0  0  0  0  0  0  0  0  0  0
   -6.9691    0.3405    0.0000 C   0  0  0  0  0  0  0  0  0  0  0  0
   -6.9691   -0.6595    0.0000 C   0  0  0  0  0  0  0  0  0  0  0  0
   -7.8352   -1.1595    0.0000 C   0  0  0  0  0  0  0  0  0  0  0  0
   -8.7012   -0.6595    0.0000 C   0  0  0  0  0  0  0  0  0  0  0  0
   -8.7012    0.3405    0.0000 C   0  0  0  0  0  0  0  0  0  0  0  0
   -7.8352    0.8405    0.0000 C   0  0  0  0  0  0  0  0  0  0  0  0
   -0.2710    1.7107    0.0000 O   0  0  0  0  0  0  0  0  0  0  0  0
    0.3584    0.9336    0.0000 C   0  0  0  0  0  0  0  0  0  0  0  0
    1.2919    0.5752    0.0000 C   0  0  0  0  0  0  0  0  0  0  0  0
    1.1355    1.5629    0.0000 C   0  0  0  0  0  0  0  0  0  0  0  0
    0.0000   -0.0000    0.0000 O   0  0  0  0  0  0  0  0  0  0  0  0
  1  2  1  0  0  0  0
  2  3  1  0  0  0  0
  2  4  1  0  0  0  0
  2  5  1  0  0  0  0
  5  6  1  0  0  0  0
  6  7  2  0  0  0  0
  6  8  1  0  0  0  0
  8  9  1  0  0  0  0
  9 10  1  6  0  0  0
  9 51  1  0  0  0  0
  9 11  1  0  0  0  0
 11 12  1  0  0  0  0
 12 13  1  6  0  0  0
 12 14  1  0  0  0  0
 12 47  1  0  0  0  0
 14 15  1  0  0  0  0
 15 16  1  0  0  0  0
 16 30  1  0  0  0  0
 16 17  1  0  0  0  0
 17 18  1  0  0  0  0
 17 21  2  0  0  0  0
 18 19  1  0  0  0  0
 18 20  1  0  0  0  0
 21 22  1  0  0  0  0
 21 38  1  0  0  0  0
 22 23  1  0  0  0  0
 22 30  2  0  0  0  0
 23 29  1  0  0  0  0
 23 24  2  0  0  0  0
 24 25  1  0  0  0  0
 25 26  2  0  0  0  0
 26 27  1  0  0  0  0
 26 28  1  0  0  0  0
 28 29  2  0  0  0  0
 30 31  1  0  0  0  0
 31 37  1  0  0  0  0
 31 32  2  0  0  0  0
 32 33  1  0  0  0  0
 33 34  2  0  0  0  0
 34 35  1  0  0  0  0
 34 36  1  0  0  0  0
 36 37  2  0  0  0  0
 38 39  2  0  0  0  0
 38 40  1  0  0  0  0
 40 41  1  0  0  0  0
 41 46  1  0  0  0  0
 41 42  2  0  0  0  0
 42 43  1  0  0  0  0
 43 44  2  0  0  0  0
 44 45  1  0  0  0  0
 45 46  2  0  0  0  0
 47 48  1  0  0  0  0
 48 49  1  0  0  0  0
 48 50  1  0  0  0  0
 48 51  1  0  0  0  0
M  END
>  <Supplier>
www.ambinter.com

>  <Ambinter_reference>
Amb33845026

>  <MW>
672.8

$$$$
Amb33848208
 OpenBabel08272101522D

113118  0  0  1  0  0  0  0  0999 V2000
   10.5172    0.3377    0.0000 Ca  0  2  0  0  0 15  0  0  0  0  0  0
    7.5482  -11.4867    0.0000 C   0  0  0  0  0  0  0  0  0  0  0  0
    9.5372  -11.6957    0.0000 C   0  0  0  0  0  0  0  0  0  0  0  0
   10.3507  -13.5228    0.0000 C   0  0  0  0  0  0  0  0  0  0  0  0
   10.7128  -10.0777    0.0000 C   0  0  0  0  0  0  0  0  0  0  0  0
   10.0947   -8.1756    0.0000 C   0  0  0  0  0  0  0  0  0  0  0  0
   11.7128   -7.0000    0.0000 C   0  0  0  0  0  0  0  0  0  0  0  0
   13.3308   -8.1756    0.0000 C   0  0  0  0  0  0  0  0  0  0  0  0
   15.2329   -7.5575    0.0000 C   0  0  0  0  0  0  0  0  0  0  0  0
   15.6487   -5.6012    0.0000 C   0  0  0  0  0  0  0  0  0  0  0  0
   17.5509   -4.9832    0.0000 C   0  0  0  0  0  0  0  0  0  0  0  0
   19.0371   -6.3215    0.0000 C   0  0  0  0  0  0  0  0  0  0  0  0
   20.9393   -5.7034    0.0000 F   0  0  0  0  0  0  0  0  0  0  0  0
   18.6213   -8.2778    0.0000 C   0  0  0  0  0  0  0  0  0  0  0  0
   16.7192   -8.8958    0.0000 C   0  0  0  0  0  0  0  0  0  0  0  0
   12.7128  -10.0777    0.0000 N   0  0  0  0  0  0  0  0  0  0  0  0
   13.8883  -11.6957    0.0000 C   0  0  0  0  0  0  0  0  0  0  0  0
   13.0749  -13.5228    0.0000 C   0  0  0  0  0  0  0  0  0  0  0  0
   14.2504  -15.1408    0.0000 C   0  0  1  0  0  0  0  0  0  0  0  0
   16.0775  -15.9543    0.0000 H   0  0  0  0  0  0  0  0  0  0  0  0
   15.8685  -13.9653    0.0000 O   0  0  0  0  0  0  0  0  0  0  0  0
   13.4370  -16.9679    0.0000 C   0  0  0  0  0  0  0  0  0  0  0  0
   14.6125  -18.5860    0.0000 C   0  0  1  0  0  0  0  0  0  0  0  0
   16.4396  -19.3994    0.0000 H   0  0  0  0  0  0  0  0  0  0  0  0
   16.2306  -17.4104    0.0000 O   0  0  0  0  0  0  0  0  0  0  0  0
   13.7991  -20.4131    0.0000 C   0  0  0  0  0  0  0  0  0  0  0  0
   14.9746  -22.0311    0.0000 C   0  0  0  0  0  0  0  0  0  0  0  0
   14.1612  -23.8582    0.0000 O   0  0  0  0  0  0  0  0  0  0  0  0
   16.9637  -21.8220    0.0000 N   0  0  0  0  0  0  0  0  0  0  0  0
   18.1393  -23.4401    0.0000 C   0  0  0  0  0  0  0  0  0  0  0  0
   17.3258  -25.2672    0.0000 C   0  0  0  0  0  0  0  0  0  0  0  0
   18.5013  -26.8852    0.0000 C   0  0  1  0  0  0  0  0  0  0  0  0
   20.3284  -27.6987    0.0000 H   0  0  0  0  0  0  0  0  0  0  0  0
   20.1194  -25.7096    0.0000 O   0  0  0  0  0  0  0  0  0  0  0  0
   17.6879  -28.7123    0.0000 C   0  0  0  0  0  0  0  0  0  0  0  0
   18.8634  -30.3303    0.0000 C   0  0  1  0  0  0  0  0  0  0  0  0
   20.6905  -31.1438    0.0000 H   0  0  0  0  0  0  0  0  0  0  0  0
   20.4815  -29.1547    0.0000 O   0  0  0  0  0  0  0  0  0  0  0  0
   18.0500  -32.1574    0.0000 C   0  0  0  0  0  0  0  0  0  0  0  0
   19.2255  -33.7754    0.0000 C   0  0  0  0  0  0  0  0  0  0  0  0
   18.4121  -35.6025    0.0000 O   0  5  0  0  0  0  0  0  0  0  0  0
   21.2146  -33.5664    0.0000 O   0  0  0  0  0  0  0  0  0  0  0  0
   11.7128   -5.0000    0.0000 C   0  0  0  0  0  0  0  0  0  0  0  0
    9.9807   -4.0000    0.0000 C   0  0  0  0  0  0  0  0  0  0  0  0
    9.9807   -2.0000    0.0000 C   0  0  0  0  0  0  0  0  0  0  0  0
   11.7128   -1.0000    0.0000 C   0  0  0  0  0  0  0  0  0  0  0  0
   13.4448   -2.0000    0.0000 C   0  0  0  0  0  0  0  0  0  0  0  0
   13.4448   -4.0000    0.0000 C   0  0  0  0  0  0  0  0  0  0  0  0
    8.1926   -7.5575    0.0000 C   0  0  0  0  0  0  0  0  0  0  0  0
    7.7768   -5.6012    0.0000 O   0  0  0  0  0  0  0  0  0  0  0  0
    6.7063   -8.8958    0.0000 N   0  0  0  0  0  0  0  0  0  0  0  0
    4.8042   -8.2778    0.0000 C   0  0  0  0  0  0  0  0  0  0  0  0
    4.3884   -6.3215    0.0000 C   0  0  0  0  0  0  0  0  0  0  0  0
    2.4863   -5.7034    0.0000 C   0  0  0  0  0  0  0  0  0  0  0  0
    1.0000   -7.0417    0.0000 C   0  0  0  0  0  0  0  0  0  0  0  0
    1.4158   -8.9980    0.0000 C   0  0  0  0  0  0  0  0  0  0  0  0
    3.3179   -9.6160    0.0000 C   0  0  0  0  0  0  0  0  0  0  0  0
   50.2317   -1.0000    0.0000 C   0  0  0  0  0  0  0  0  0  0  0  0
   50.2317   -1.0000    0.0000 C   0  0  0  0  0  0  0  0  0  0  0  0
   50.2317   -1.0000    0.0000 C   0  0  0  0  0  0  0  0  0  0  0  0
   50.2317   -1.0000    0.0000 C   0  0  0  0  0  0  0  0  0  0  0  0
   50.2317   -1.0000    0.0000 C   0  0  0  0  0  0  0  0  0  0  0  0
   50.2317   -1.0000    0.0000 C   0  0  0  0  0  0  0  0  0  0  0  0
   50.2317   -1.0000    0.0000 C   0  0  0  0  0  0  0  0  0  0  0  0
   50.2317   -1.0000    0.0000 C   0  0  0  0  0  0  0  0  0  0  0  0
   50.2317   -1.0000    0.0000 C   0  0  0  0  0  0  0  0  0  0  0  0
   50.2317   -1.0000    0.0000 C   0  0  0  0  0  0  0  0  0  0  0  0
   50.2317   -1.0000    0.0000 C   0  0  0  0  0  0  0  0  0  0  0  0
   50.2317   -1.0000    0.0000 F   0  0  0  0  0  0  0  0  0  0  0  0
   50.2317   -1.0000    0.0000 C   0  0  0  0  0  0  0  0  0  0  0  0
   50.2317   -1.0000    0.0000 C   0  0  0  0  0  0  0  0  0  0  0  0
   50.2317   -1.0000    0.0000 N   0  0  0  0  0  0  0  0  0  0  0  0
   50.2317   -1.0000    0.0000 C   0  0  0  0  0  0  0  0  0  0  0  0
   50.2317   -1.0000    0.0000 C   0  0  0  0  0  0  0  0  0  0  0  0
   50.2317   -1.0000    0.0000 C   0  0  1  0  0  0  0  0  0  0  0  0
   50.2317   -1.0000    0.0000 H   0  0  0  0  0  0  0  0  0  0  0  0
   50.2317   -1.0000    0.0000 O   0  0  0  0  0  0  0  0  0  0  0  0
   50.2317   -1.0000    0.0000 C   0  0  0  0  0  0  0  0  0  0  0  0
   50.2317   -1.0000    0.0000 C   0  0  1  0  0  0  0  0  0  0  0  0
   50.2317   -1.0000    0.0000 H   0  0  0  0  0  0  0  0  0  0  0  0
   50.2317   -1.0000    0.0000 O   0  0  0  0  0  0  0  0  0  0  0  0
   50.2317   -1.0000    0.0000 C   0  0  0  0  0  0  0  0  0  0  0  0
   50.2317   -1.0000    0.0000 C   0  0  0  0  0  0  0  0  0  0  0  0
   50.2317   -1.0000    0.0000 O   0  0  0  0  0  0  0  0  0  0  0  0
   50.2317   -1.0000    0.0000 N   0  0  0  0  0  0  0  0  0  0  0  0
   50.2317   -1.0000    0.0000 C   0  0  0  0  0  0  0  0  0  0  0  0
   50.2317   -1.0000    0.0000 C   0  0  0  0  0  0  0  0  0  0  0  0
   50.2317   -1.0000    0.0000 C   0  0  1  0  0  0  0  0  0  0  0  0
   50.2317   -1.0000    0.0000 H   0  0  0  0  0  0  0  0  0  0  0  0
   50.2317   -1.0000    0.0000 O   0  0  0  0  0  0  0  0  0  0  0  0
   50.2317   -1.0000    0.0000 C   0  0  0  0  0  0  0  0  0  0  0  0
   50.2317   -1.0000    0.0000 C   0  0  1  0  0  0  0  0  0  0  0  0
   50.2317   -1.0000    0.0000 H   0  0  0  0  0  0  0  0  0  0  0  0
   50.2317   -1.0000    0.0000 O   0  0  0  0  0  0  0  0  0  0  0  0
   50.2317   -1.0000    0.0000 C   0  0  0  0  0  0  0  0  0  0  0  0
   50.2317   -1.0000    0.0000 C   0  0  0  0  0  0  0  0  0  0  0  0
   50.2317   -1.0000    0.0000 O   0  5  0  0  0  0  0  0  0  0  0  0
   50.2317   -1.0000    0.0000 O   0  0  0  0  0  0  0  0  0  0  0  0
   50.2317   -1.0000    0.0000 C   0  0  0  0  0  0  0  0  0  0  0  0
   50.2317   -1.0000    0.0000 C   0  0  0  0  0  0  0  0  0  0  0  0
   50.2317   -1.0000    0.0000 C   0  0  0  0  0  0  0  0  0  0  0  0
   50.2317   -1.0000    0.0000 C   0  0  0  0  0  0  0  0  0  0  0  0
   50.2317   -1.0000    0.0000 C   0  0  0  0  0  0  0  0  0  0  0  0
   50.2317   -1.0000    0.0000 C   0  0  0  0  0  0  0  0  0  0  0  0
   50.2317   -1.0000    0.0000 C   0  0  0  0  0  0  0  0  0  0  0  0
   50.2317   -1.0000    0.0000 O   0  0  0  0  0  0  0  0  0  0  0  0
   50.2317   -1.0000    0.0000 N   0  0  0  0  0  0  0  0  0  0  0  0
   50.2317   -1.0000    0.0000 C   0  0  0  0  0  0  0  0  0  0  0  0
   50.2317   -1.0000    0.0000 C   0  0  0  0  0  0  0  0  0  0  0  0
   50.2317   -1.0000    0.0000 C   0  0  0  0  0  0  0  0  0  0  0  0
   50.2317   -1.0000    0.0000 C   0  0  0  0  0  0  0  0  0  0  0  0
   50.2317   -1.0000    0.0000 C   0  0  0  0  0  0  0  0  0  0  0  0
   50.2317   -1.0000    0.0000 C   0  0  0  0  0  0  0  0  0  0  0  0
  2  3  1  0  0  0  0
  3  4  1  0  0  0  0
  3  5  1  0  0  0  0
  5 16  1  0  0  0  0
  5  6  2  0  0  0  0
  6  7  1  0  0  0  0
  6 49  1  0  0  0  0
  7  8  2  0  0  0  0
  7 43  1  0  0  0  0
  8  9  1  0  0  0  0
  8 16  1  0  0  0  0
  9 15  1  0  0  0  0
  9 10  2  0  0  0  0
 10 11  1  0  0  0  0
 11 12  2  0  0  0  0
 12 13  1  0  0  0  0
 12 14  1  0  0  0  0
 14 15  2  0  0  0  0
 16 17  1  0  0  0  0
 17 18  1  0  0  0  0
 18 19  1  0  0  0  0
 19 20  1  6  0  0  0
 19 21  1  0  0  0  0
 19 22  1  0  0  0  0
 22 23  1  0  0  0  0
 23 24  1  6  0  0  0
 23 25  1  0  0  0  0
 23 26  1  0  0  0  0
 26 27  1  0  0  0  0
 27 28  2  0  0  0  0
 27 29  1  0  0  0  0
 29 30  1  0  0  0  0
 30 31  1  0  0  0  0
 31 32  1  0  0  0  0
 32 33  1  6  0  0  0
 32 34  1  0  0  0  0
 32 35  1  0  0  0  0
 35 36  1  0  0  0  0
 36 37  1  6  0  0  0
 36 38  1  0  0  0  0
 36 39  1  0  0  0  0
 39 40  1  0  0  0  0
 40 41  1  0  0  0  0
 40 42  2  0  0  0  0
 43 48  1  0  0  0  0
 43 44  2  0  0  0  0
 44 45  1  0  0  0  0
 45 46  2  0  0  0  0
 46 47  1  0  0  0  0
 47 48  2  0  0  0  0
 49 50  2  0  0  0  0
 49 51  1  0  0  0  0
 51 52  1  0  0  0  0
 52 57  1  0  0  0  0
 52 53  2  0  0  0  0
 53 54  1  0  0  0  0
 54 55  2  0  0  0  0
 55 56  1  0  0  0  0
 56 57  2  0  0  0  0
 58 59  1  0  0  0  0
 59 60  1  0  0  0  0
 59 61  1  0  0  0  0
 61 72  1  0  0  0  0
 61 62  2  0  0  0  0
 62 63  1  0  0  0  0
 62105  1  0  0  0  0
 63 64  2  0  0  0  0
 63 99  1  0  0  0  0
 64 65  1  0  0  0  0
 64 72  1  0  0  0  0
 65 71  1  0  0  0  0
 65 66  2  0  0  0  0
 66 67  1  0  0  0  0
 67 68  2  0  0  0  0
 68 69  1  0  0  0  0
 68 70  1  0  0  0  0
 70 71  2  0  0  0  0
 72 73  1  0  0  0  0
 73 74  1  0  0  0  0
 74 75  1  0  0  0  0
 75 76  1  1  0  0  0
 75 77  1  0  0  0  0
 75 78  1  0  0  0  0
 78 79  1  0  0  0  0
 79 80  1  1  0  0  0
 79 81  1  0  0  0  0
 79 82  1  0  0  0  0
 82 83  1  0  0  0  0
 83 84  2  0  0  0  0
 83 85  1  0  0  0  0
 85 86  1  0  0  0  0
 86 87  1  0  0  0  0
 87 88  1  0  0  0  0
 88 89  1  1  0  0  0
 88 90  1  0  0  0  0
 88 91  1  0  0  0  0
 91 92  1  0  0  0  0
 92 93  1  1  0  0  0
 92 94  1  0  0  0  0
 92 95  1  0  0  0  0
 95 96  1  0  0  0  0
 96 97  1  0  0  0  0
 96 98  2  0  0  0  0
 99104  1  0  0  0  0
 99100  2  0  0  0  0
100101  1  0  0  0  0
101102  2  0  0  0  0
102103  1  0  0  0  0
103104  2  0  0  0  0
105106  2  0  0  0  0
105107  1  0  0  0  0
107108  1  0  0  0  0
108113  1  0  0  0  0
108109  2  0  0  0  0
109110  1  0  0  0  0
110111  2  0  0  0  0
111112  1  0  0  0  0
112113  2  0  0  0  0
M  CHG  3   1   2  41  -1  97  -1
M  END
>  <Supplier>
www.ambinter.com

>  <Ambinter_reference>
Amb33848208

>  <MW>
1473.71

$$$$
Amb34912146
 OpenBabel08272101522D

 42 46  0  0  1  0  0  0  0  0999 V2000
    3.9781   -0.3479    0.0000 C   0  0  0  0  0  0  0  0  0  0  0  0
    2.9836   -0.4524    0.0000 C   0  0  0  0  0  0  0  0  0  0  0  0
    2.3958    0.3566    0.0000 C   0  0  0  0  0  0  0  0  0  0  0  0
    2.5768   -1.3660    0.0000 C   0  0  0  0  0  0  0  0  0  0  0  0
    3.0768   -2.2320    0.0000 C   0  0  0  0  0  0  0  0  0  0  0  0
    4.0713   -2.3365    0.0000 C   0  0  0  0  0  0  0  0  0  0  0  0
    4.4781   -3.2501    0.0000 O   0  0  0  0  0  0  0  0  0  0  0  0
    4.6591   -1.5275    0.0000 N   0  0  0  0  0  0  0  0  0  0  0  0
    5.6537   -1.6320    0.0000 C   0  0  0  0  0  0  0  0  0  0  0  0
    6.2414   -0.8230    0.0000 C   0  0  0  0  0  0  0  0  0  0  0  0
    7.2360   -0.9275    0.0000 C   0  0  0  0  0  0  0  0  0  0  0  0
    7.6427   -1.8411    0.0000 C   0  0  0  0  0  0  0  0  0  0  0  0
    7.0549   -2.6501    0.0000 C   0  0  0  0  0  0  0  0  0  0  0  0
    6.0604   -2.5456    0.0000 C   0  0  0  0  0  0  0  0  0  0  0  0
    2.4077   -2.9751    0.0000 C   0  0  0  0  0  0  0  0  0  0  0  0
    2.6156   -3.9533    0.0000 C   0  0  0  0  0  0  0  0  0  0  0  0
    3.5667   -4.2623    0.0000 C   0  0  0  0  0  0  0  0  0  0  0  0
    3.7746   -5.2405    0.0000 C   0  0  0  0  0  0  0  0  0  0  0  0
    3.0314   -5.9096    0.0000 C   0  0  0  0  0  0  0  0  0  0  0  0
    2.0804   -5.6006    0.0000 C   0  0  0  0  0  0  0  0  0  0  0  0
    1.8725   -4.6224    0.0000 C   0  0  0  0  0  0  0  0  0  0  0  0
    1.4941   -2.5684    0.0000 C   0  0  0  0  0  0  0  0  0  0  0  0
    0.6281   -3.0684    0.0000 C   0  0  0  0  0  0  0  0  0  0  0  0
    0.6281   -4.0684    0.0000 C   0  0  0  0  0  0  0  0  0  0  0  0
   -0.2379   -4.5684    0.0000 C   0  0  0  0  0  0  0  0  0  0  0  0
   -1.1039   -4.0684    0.0000 C   0  0  0  0  0  0  0  0  0  0  0  0
   -1.9700   -4.5684    0.0000 F   0  0  0  0  0  0  0  0  0  0  0  0
   -1.1039   -3.0684    0.0000 C   0  0  0  0  0  0  0  0  0  0  0  0
   -0.2379   -2.5684    0.0000 C   0  0  0  0  0  0  0  0  0  0  0  0
    1.5987   -1.5739    0.0000 N   0  0  0  0  0  0  0  0  0  0  0  0
    0.8555   -0.9048    0.0000 C   0  0  0  0  0  0  0  0  0  0  0  0
   -0.0955   -1.2138    0.0000 C   0  0  0  0  0  0  0  0  0  0  0  0
   -0.8387   -0.5446    0.0000 C   0  0  1  0  0  0  0  0  0  0  0  0
   -1.7413   -0.9752    0.0000 H   0  0  0  0  0  0  0  0  0  0  0  0
   -1.7297   -0.0906    0.0000 C   0  0  0  0  0  0  0  0  0  0  0  0
   -1.7820    0.9080    0.0000 C   0  0  1  0  0  0  0  0  0  0  0  0
   -2.3267    1.7467    0.0000 H   0  0  0  0  0  0  0  0  0  0  0  0
   -2.7806    0.8556    0.0000 O   0  0  0  0  0  0  0  0  0  0  0  0
   -0.9433    1.4526    0.0000 C   0  0  0  0  0  0  0  0  0  0  0  0
   -0.0523    0.9986    0.0000 C   0  0  0  0  0  0  0  0  0  0  0  0
    0.7863    1.5433    0.0000 O   0  0  0  0  0  0  0  0  0  0  0  0
    0.0000   -0.0000    0.0000 O   0  0  0  0  0  0  0  0  0  0  0  0
  1  2  1  0  0  0  0
  2  3  1  0  0  0  0
  2  4  1  0  0  0  0
  4 30  1  0  0  0  0
  4  5  2  0  0  0  0
  5  6  1  0  0  0  0
  5 15  1  0  0  0  0
  6  7  2  0  0  0  0
  6  8  1  0  0  0  0
  8  9  1  0  0  0  0
  9 14  1  0  0  0  0
  9 10  2  0  0  0  0
 10 11  1  0  0  0  0
 11 12  2  0  0  0  0
 12 13  1  0  0  0  0
 13 14  2  0  0  0  0
 15 16  1  0  0  0  0
 15 22  2  0  0  0  0
 16 21  1  0  0  0  0
 16 17  2  0  0  0  0
 17 18  1  0  0  0  0
 18 19  2  0  0  0  0
 19 20  1  0  0  0  0
 20 21  2  0  0  0  0
 22 23  1  0  0  0  0
 22 30  1  0  0  0  0
 23 29  1  0  0  0  0
 23 24  2  0  0  0  0
 24 25  1  0  0  0  0
 25 26  2  0  0  0  0
 26 27  1  0  0  0  0
 26 28  1  0  0  0  0
 28 29  2  0  0  0  0
 30 31  1  0  0  0  0
 31 32  1  0  0  0  0
 32 33  1  0  0  0  0
 33 34  1  6  0  0  0
 33 42  1  0  0  0  0
 33 35  1  0  0  0  0
 35 36  1  0  0  0  0
 36 37  1  6  0  0  0
 36 38  1  0  0  0  0
 36 39  1  0  0  0  0
 39 40  1  0  0  0  0
 40 41  2  0  0  0  0
 40 42  1  0  0  0  0
M  END
>  <Supplier>
www.ambinter.com

>  <Ambinter_reference>
Amb34912146

>  <MW>
540.625

$$$$
Amb34920341
 OpenBabel08272101522D

 87 92  0  0  1  0  0  0  0  0999 V2000
    7.3491    1.4815    0.0000 Mg  0  2  0  0  0 15  0  0  0  0  0  0
   36.3304  -13.3715    0.0000 C   0  0  0  0  0  0  0  0  0  0  0  0
   34.3413  -13.1625    0.0000 C   0  0  0  0  0  0  0  0  0  0  0  0
   33.5278  -11.3354    0.0000 C   0  0  0  0  0  0  0  0  0  0  0  0
   33.1657  -14.7805    0.0000 C   0  0  0  0  0  0  0  0  0  0  0  0
   33.7838  -16.6826    0.0000 C   0  0  0  0  0  0  0  0  0  0  0  0
   32.1657  -17.8582    0.0000 C   0  0  0  0  0  0  0  0  0  0  0  0
   30.5477  -16.6826    0.0000 C   0  0  0  0  0  0  0  0  0  0  0  0
   28.6456  -17.3006    0.0000 C   0  0  0  0  0  0  0  0  0  0  0  0
   28.2298  -19.2569    0.0000 C   0  0  0  0  0  0  0  0  0  0  0  0
   26.3277  -19.8750    0.0000 C   0  0  0  0  0  0  0  0  0  0  0  0
   24.8414  -18.5367    0.0000 C   0  0  0  0  0  0  0  0  0  0  0  0
   22.9393  -19.1547    0.0000 F   0  0  0  0  0  0  0  0  0  0  0  0
   25.2572  -16.5804    0.0000 C   0  0  0  0  0  0  0  0  0  0  0  0
   27.1593  -15.9624    0.0000 C   0  0  0  0  0  0  0  0  0  0  0  0
   31.1657  -14.7805    0.0000 N   0  0  0  0  0  0  0  0  0  0  0  0
   29.9902  -13.1625    0.0000 C   0  0  0  0  0  0  0  0  0  0  0  0
   30.8037  -11.3354    0.0000 C   0  0  0  0  0  0  0  0  0  0  0  0
   29.6281   -9.7173    0.0000 C   0  0  1  0  0  0  0  0  0  0  0  0
   27.8010   -8.9039    0.0000 H   0  0  0  0  0  0  0  0  0  0  0  0
   28.0100  -10.8929    0.0000 O   0  0  0  0  0  0  0  0  0  0  0  0
   30.4416   -7.8902    0.0000 C   0  0  0  0  0  0  0  0  0  0  0  0
   29.2660   -6.2722    0.0000 C   0  0  1  0  0  0  0  0  0  0  0  0
   27.4389   -5.4587    0.0000 H   0  0  0  0  0  0  0  0  0  0  0  0
   27.6479   -7.4478    0.0000 O   0  0  0  0  0  0  0  0  0  0  0  0
   30.0795   -4.4451    0.0000 C   0  0  0  0  0  0  0  0  0  0  0  0
   28.9039   -2.8271    0.0000 C   0  0  0  0  0  0  0  0  0  0  0  0
   29.7174   -1.0000    0.0000 O   0  5  0  0  0  0  0  0  0  0  0  0
   26.9148   -3.0361    0.0000 O   0  0  0  0  0  0  0  0  0  0  0  0
   32.1657  -19.8582    0.0000 C   0  0  0  0  0  0  0  0  0  0  0  0
   33.8978  -20.8582    0.0000 C   0  0  0  0  0  0  0  0  0  0  0  0
   33.8978  -22.8582    0.0000 C   0  0  0  0  0  0  0  0  0  0  0  0
   32.1657  -23.8582    0.0000 C   0  0  0  0  0  0  0  0  0  0  0  0
   30.4337  -22.8582    0.0000 C   0  0  0  0  0  0  0  0  0  0  0  0
   30.4337  -20.8582    0.0000 C   0  0  0  0  0  0  0  0  0  0  0  0
   35.6859  -17.3006    0.0000 C   0  0  0  0  0  0  0  0  0  0  0  0
   36.1017  -19.2569    0.0000 O   0  0  0  0  0  0  0  0  0  0  0  0
   37.1722  -15.9624    0.0000 N   0  0  0  0  0  0  0  0  0  0  0  0
   39.0743  -16.5804    0.0000 C   0  0  0  0  0  0  0  0  0  0  0  0
   39.4901  -18.5367    0.0000 C   0  0  0  0  0  0  0  0  0  0  0  0
   41.3922  -19.1547    0.0000 C   0  0  0  0  0  0  0  0  0  0  0  0
   42.8785  -17.8165    0.0000 C   0  0  0  0  0  0  0  0  0  0  0  0
   42.4627  -15.8602    0.0000 C   0  0  0  0  0  0  0  0  0  0  0  0
   40.5606  -15.2422    0.0000 C   0  0  0  0  0  0  0  0  0  0  0  0
    1.0000  -27.8582    0.0000 C   0  0  0  0  0  0  0  0  0  0  0  0
    1.0000  -27.8582    0.0000 C   0  0  0  0  0  0  0  0  0  0  0  0
    1.0000  -27.8582    0.0000 C   0  0  0  0  0  0  0  0  0  0  0  0
    1.0000  -27.8582    0.0000 C   0  0  0  0  0  0  0  0  0  0  0  0
    1.0000  -27.8582    0.0000 C   0  0  0  0  0  0  0  0  0  0  0  0
    1.0000  -27.8582    0.0000 C   0  0  0  0  0  0  0  0  0  0  0  0
    1.0000  -27.8582    0.0000 C   0  0  0  0  0  0  0  0  0  0  0  0
    1.0000  -27.8582    0.0000 C   0  0  0  0  0  0  0  0  0  0  0  0
    1.0000  -27.8582    0.0000 C   0  0  0  0  0  0  0  0  0  0  0  0
    1.0000  -27.8582    0.0000 C   0  0  0  0  0  0  0  0  0  0  0  0
    1.0000  -27.8582    0.0000 C   0  0  0  0  0  0  0  0  0  0  0  0
    1.0000  -27.8582    0.0000 F   0  0  0  0  0  0  0  0  0  0  0  0
    1.0000  -27.8582    0.0000 C   0  0  0  0  0  0  0  0  0  0  0  0
    1.0000  -27.8582    0.0000 C   0  0  0  0  0  0  0  0  0  0  0  0
    1.0000  -27.8582    0.0000 N   0  0  0  0  0  0  0  0  0  0  0  0
    1.0000  -27.8582    0.0000 C   0  0  0  0  0  0  0  0  0  0  0  0
    1.0000  -27.8582    0.0000 C   0  0  0  0  0  0  0  0  0  0  0  0
    1.0000  -27.8582    0.0000 C   0  0  1  0  0  0  0  0  0  0  0  0
    1.0000  -27.8582    0.0000 H   0  0  0  0  0  0  0  0  0  0  0  0
    1.0000  -27.8582    0.0000 O   0  0  0  0  0  0  0  0  0  0  0  0
    1.0000  -27.8582    0.0000 C   0  0  0  0  0  0  0  0  0  0  0  0
    1.0000  -27.8582    0.0000 C   0  0  1  0  0  0  0  0  0  0  0  0
    1.0000  -27.8582    0.0000 H   0  0  0  0  0  0  0  0  0  0  0  0
    1.0000  -27.8582    0.0000 O   0  0  0  0  0  0  0  0  0  0  0  0
    1.0000  -27.8582    0.0000 C   0  0  0  0  0  0  0  0  0  0  0  0
    1.0000  -27.8582    0.0000 C   0  0  0  0  0  0  0  0  0  0  0  0
    1.0000  -27.8582    0.0000 O   0  5  0  0  0  0  0  0  0  0  0  0
    1.0000  -27.8582    0.0000 O   0  0  0  0  0  0  0  0  0  0  0  0
    1.0000  -27.8582    0.0000 C   0  0  0  0  0  0  0  0  0  0  0  0
    1.0000  -27.8582    0.0000 C   0  0  0  0  0  0  0  0  0  0  0  0
    1.0000  -27.8582    0.0000 C   0  0  0  0  0  0  0  0  0  0  0  0
    1.0000  -27.8582    0.0000 C   0  0  0  0  0  0  0  0  0  0  0  0
    1.0000  -27.8582    0.0000 C   0  0  0  0  0  0  0  0  0  0  0  0
    1.0000  -27.8582    0.0000 C   0  0  0  0  0  0  0  0  0  0  0  0
    1.0000  -27.8582    0.0000 C   0  0  0  0  0  0  0  0  0  0  0  0
    1.0000  -27.8582    0.0000 O   0  0  0  0  0  0  0  0  0  0  0  0
    1.0000  -27.8582    0.0000 N   0  0  0  0  0  0  0  0  0  0  0  0
    1.0000  -27.8582    0.0000 C   0  0  0  0  0  0  0  0  0  0  0  0
    1.0000  -27.8582    0.0000 C   0  0  0  0  0  0  0  0  0  0  0  0
    1.0000  -27.8582    0.0000 C   0  0  0  0  0  0  0  0  0  0  0  0
    1.0000  -27.8582    0.0000 C   0  0  0  0  0  0  0  0  0  0  0  0
    1.0000  -27.8582    0.0000 C   0  0  0  0  0  0  0  0  0  0  0  0
    1.0000  -27.8582    0.0000 C   0  0  0  0  0  0  0  0  0  0  0  0
  2  3  1  0  0  0  0
  3  4  1  0  0  0  0
  3  5  1  0  0  0  0
  5 16  1  0  0  0  0
  5  6  2  0  0  0  0
  6  7  1  0  0  0  0
  6 36  1  0  0  0  0
  7  8  2  0  0  0  0
  7 30  1  0  0  0  0
  8  9  1  0  0  0  0
  8 16  1  0  0  0  0
  9 15  1  0  0  0  0
  9 10  2  0  0  0  0
 10 11  1  0  0  0  0
 11 12  2  0  0  0  0
 12 13  1  0  0  0  0
 12 14  1  0  0  0  0
 14 15  2  0  0  0  0
 16 17  1  0  0  0  0
 17 18  1  0  0  0  0
 18 19  1  0  0  0  0
 19 20  1  6  0  0  0
 19 21  1  0  0  0  0
 19 22  1  0  0  0  0
 22 23  1  0  0  0  0
 23 24  1  6  0  0  0
 23 25  1  0  0  0  0
 23 26  1  0  0  0  0
 26 27  1  0  0  0  0
 27 28  1  0  0  0  0
 27 29  2  0  0  0  0
 30 35  1  0  0  0  0
 30 31  2  0  0  0  0
 31 32  1  0  0  0  0
 32 33  2  0  0  0  0
 33 34  1  0  0  0  0
 34 35  2  0  0  0  0
 36 37  2  0  0  0  0
 36 38  1  0  0  0  0
 38 39  1  0  0  0  0
 39 44  1  0  0  0  0
 39 40  2  0  0  0  0
 40 41  1  0  0  0  0
 41 42  2  0  0  0  0
 42 43  1  0  0  0  0
 43 44  2  0  0  0  0
 45 46  1  0  0  0  0
 46 47  1  0  0  0  0
 46 48  1  0  0  0  0
 48 59  1  0  0  0  0
 48 49  2  0  0  0  0
 49 50  1  0  0  0  0
 49 79  1  0  0  0  0
 50 51  2  0  0  0  0
 50 73  1  0  0  0  0
 51 52  1  0  0  0  0
 51 59  1  0  0  0  0
 52 58  1  0  0  0  0
 52 53  2  0  0  0  0
 53 54  1  0  0  0  0
 54 55  2  0  0  0  0
 55 56  1  0  0  0  0
 55 57  1  0  0  0  0
 57 58  2  0  0  0  0
 59 60  1  0  0  0  0
 60 61  1  0  0  0  0
 61 62  1  0  0  0  0
 62 63  1  1  0  0  0
 62 64  1  0  0  0  0
 62 65  1  0  0  0  0
 65 66  1  0  0  0  0
 66 67  1  1  0  0  0
 66 68  1  0  0  0  0
 66 69  1  0  0  0  0
 69 70  1  0  0  0  0
 70 71  1  0  0  0  0
 70 72  2  0  0  0  0
 73 78  1  0  0  0  0
 73 74  2  0  0  0  0
 74 75  1  0  0  0  0
 75 76  2  0  0  0  0
 76 77  1  0  0  0  0
 77 78  2  0  0  0  0
 79 80  2  0  0  0  0
 79 81  1  0  0  0  0
 81 82  1  0  0  0  0
 82 87  1  0  0  0  0
 82 83  2  0  0  0  0
 83 84  1  0  0  0  0
 84 85  2  0  0  0  0
 85 86  1  0  0  0  0
 86 87  2  0  0  0  0
M  CHG  3   1   2  28  -1  71  -1
M  END
>  <Supplier>
www.ambinter.com

>  <Ambinter_reference>
Amb34920341

>  <MW>
1139.57

$$$$
Amb34921594
 OpenBabel08272101522D

 51 54  0  0  1  0  0  0  0  0999 V2000
    1.1810   -1.7226    0.0000 C   0  0  0  0  0  0  0  0  0  0  0  0
    1.5878   -0.8090    0.0000 C   0  0  0  0  0  0  0  0  0  0  0  0
    2.5823   -0.7045    0.0000 C   0  0  0  0  0  0  0  0  0  0  0  0
    1.0000    0.0000    0.0000 C   0  0  0  0  0  0  0  0  0  0  0  0
    1.3090    0.9511    0.0000 C   0  0  0  0  0  0  0  0  0  0  0  0
    2.2601    1.2601    0.0000 C   0  0  0  0  0  0  0  0  0  0  0  0
    2.4680    2.2382    0.0000 O   0  0  0  0  0  0  0  0  0  0  0  0
    3.0032    0.5909    0.0000 N   0  0  0  0  0  0  0  0  0  0  0  0
    3.9543    0.9000    0.0000 C   0  0  0  0  0  0  0  0  0  0  0  0
    4.6974    0.2308    0.0000 C   0  0  0  0  0  0  0  0  0  0  0  0
    5.6485    0.5398    0.0000 C   0  0  0  0  0  0  0  0  0  0  0  0
    5.8564    1.5180    0.0000 C   0  0  0  0  0  0  0  0  0  0  0  0
    5.1132    2.1871    0.0000 C   0  0  0  0  0  0  0  0  0  0  0  0
    4.1622    1.8781    0.0000 C   0  0  0  0  0  0  0  0  0  0  0  0
    0.5000    1.5388    0.0000 C   0  0  0  0  0  0  0  0  0  0  0  0
    0.5000    2.5388    0.0000 C   0  0  0  0  0  0  0  0  0  0  0  0
    1.3660    3.0388    0.0000 C   0  0  0  0  0  0  0  0  0  0  0  0
    1.3660    4.0388    0.0000 C   0  0  0  0  0  0  0  0  0  0  0  0
    0.5000    4.5388    0.0000 C   0  0  0  0  0  0  0  0  0  0  0  0
   -0.3660    4.0388    0.0000 C   0  0  0  0  0  0  0  0  0  0  0  0
   -0.3660    3.0388    0.0000 C   0  0  0  0  0  0  0  0  0  0  0  0
   -0.3090    0.9511    0.0000 C   0  0  0  0  0  0  0  0  0  0  0  0
   -1.2601    1.2601    0.0000 C   0  0  0  0  0  0  0  0  0  0  0  0
   -1.4680    2.2382    0.0000 C   0  0  0  0  0  0  0  0  0  0  0  0
   -2.4190    2.5472    0.0000 C   0  0  0  0  0  0  0  0  0  0  0  0
   -3.1622    1.8781    0.0000 C   0  0  0  0  0  0  0  0  0  0  0  0
   -4.1132    2.1871    0.0000 F   0  0  0  0  0  0  0  0  0  0  0  0
   -2.9543    0.9000    0.0000 C   0  0  0  0  0  0  0  0  0  0  0  0
   -2.0032    0.5909    0.0000 C   0  0  0  0  0  0  0  0  0  0  0  0
    0.0000    0.0000    0.0000 N   0  0  0  0  0  0  0  0  0  0  0  0
   -0.5878   -0.8090    0.0000 C   0  0  0  0  0  0  0  0  0  0  0  0
   -0.1810   -1.7226    0.0000 C   0  0  0  0  0  0  0  0  0  0  0  0
   -0.7688   -2.5316    0.0000 C   0  0  1  0  0  0  0  0  0  0  0  0
   -1.6824   -2.9383    0.0000 H   0  0  0  0  0  0  0  0  0  0  0  0
   -1.5779   -1.9438    0.0000 O   0  0  0  0  0  0  0  0  0  0  0  0
   -0.3621   -3.4451    0.0000 C   0  0  0  0  0  0  0  0  0  0  0  0
   -0.9499   -4.2541    0.0000 C   0  0  1  0  0  0  0  0  0  0  0  0
   -1.8634   -4.6609    0.0000 H   0  0  0  0  0  0  0  0  0  0  0  0
   -1.7589   -3.6664    0.0000 O   0  0  0  0  0  0  0  0  0  0  0  0
   -0.5431   -5.1677    0.0000 C   0  0  0  0  0  0  0  0  0  0  0  0
   -1.1309   -5.9767    0.0000 C   0  0  0  0  0  0  0  0  0  0  0  0
   -0.7242   -6.8902    0.0000 O   0  0  0  0  0  0  0  0  0  0  0  0
   -2.1255   -5.8722    0.0000 O   0  0  0  0  0  0  0  0  0  0  0  0
   -2.7132   -6.6812    0.0000 C   0  0  0  0  0  0  0  0  0  0  0  0
   -3.7078   -6.5767    0.0000 C   0  0  0  0  0  0  0  0  0  0  0  0
   -4.2955   -7.3857    0.0000 C   0  0  0  0  0  0  0  0  0  0  0  0
   -5.2901   -7.2812    0.0000 C   0  0  0  0  0  0  0  0  0  0  0  0
   -5.8779   -8.0902    0.0000 O   0  0  0  0  0  0  0  0  0  0  0  0
   -6.8724   -7.9856    0.0000 N   0  3  0  0  0  0  0  0  0  0  0  0
   -7.4602   -8.7947    0.0000 O   0  5  0  0  0  0  0  0  0  0  0  0
   -7.2791   -7.0721    0.0000 O   0  0  0  0  0  0  0  0  0  0  0  0
  1  2  1  0  0  0  0
  2  3  1  0  0  0  0
  2  4  1  0  0  0  0
  4 30  1  0  0  0  0
  4  5  2  0  0  0  0
  5  6  1  0  0  0  0
  5 15  1  0  0  0  0
  6  7  2  0  0  0  0
  6  8  1  0  0  0  0
  8  9  1  0  0  0  0
  9 14  1  0  0  0  0
  9 10  2  0  0  0  0
 10 11  1  0  0  0  0
 11 12  2  0  0  0  0
 12 13  1  0  0  0  0
 13 14  2  0  0  0  0
 15 16  1  0  0  0  0
 15 22  2  0  0  0  0
 16 21  1  0  0  0  0
 16 17  2  0  0  0  0
 17 18  1  0  0  0  0
 18 19  2  0  0  0  0
 19 20  1  0  0  0  0
 20 21  2  0  0  0  0
 22 23  1  0  0  0  0
 22 30  1  0  0  0  0
 23 29  1  0  0  0  0
 23 24  2  0  0  0  0
 24 25  1  0  0  0  0
 25 26  2  0  0  0  0
 26 27  1  0  0  0  0
 26 28  1  0  0  0  0
 28 29  2  0  0  0  0
 30 31  1  0  0  0  0
 31 32  1  0  0  0  0
 32 33  1  0  0  0  0
 33 34  1  1  0  0  0
 33 35  1  0  0  0  0
 33 36  1  0  0  0  0
 36 37  1  0  0  0  0
 37 38  1  1  0  0  0
 37 39  1  0  0  0  0
 37 40  1  0  0  0  0
 40 41  1  0  0  0  0
 41 42  2  0  0  0  0
 41 43  1  0  0  0  0
 43 44  1  0  0  0  0
 44 45  1  0  0  0  0
 45 46  1  0  0  0  0
 46 47  1  0  0  0  0
 47 48  1  0  0  0  0
 48 49  1  0  0  0  0
 49 50  1  0  0  0  0
 49 51  2  0  0  0  0
M  CHG  2  49   1  50  -1
M  END
>  <Supplier>
www.ambinter.com

>  <Ambinter_reference>
Amb34921594

>  <MW>
675.743

$$$$
Amb34922141
 OpenBabel08272101522D

 43 46  0  0  1  0  0  0  0  0999 V2000
   -2.5823   -0.7045    0.0000 C   0  0  0  0  0  0  0  0  0  0  0  0
   -1.5878   -0.8090    0.0000 C   0  0  0  0  0  0  0  0  0  0  0  0
   -1.1810   -1.7226    0.0000 C   0  0  0  0  0  0  0  0  0  0  0  0
   -1.0000    0.0000    0.0000 C   0  0  0  0  0  0  0  0  0  0  0  0
   -1.3090    0.9511    0.0000 C   0  0  0  0  0  0  0  0  0  0  0  0
   -2.2601    1.2601    0.0000 C   0  0  0  0  0  0  0  0  0  0  0  0
   -2.4680    2.2382    0.0000 O   0  0  0  0  0  0  0  0  0  0  0  0
   -3.0032    0.5909    0.0000 N   0  0  0  0  0  0  0  0  0  0  0  0
   -3.9543    0.9000    0.0000 C   0  0  0  0  0  0  0  0  0  0  0  0
   -4.6974    0.2308    0.0000 C   0  0  0  0  0  0  0  0  0  0  0  0
   -5.6485    0.5398    0.0000 C   0  0  0  0  0  0  0  0  0  0  0  0
   -5.8564    1.5180    0.0000 C   0  0  0  0  0  0  0  0  0  0  0  0
   -6.8074    1.8270    0.0000 C   0  0  0  0  0  0  0  0  0  0  0  0
   -7.0154    2.8052    0.0000 O   0  0  0  0  0  0  0  0  0  0  0  0
   -5.1132    2.1871    0.0000 C   0  0  0  0  0  0  0  0  0  0  0  0
   -4.1622    1.8781    0.0000 C   0  0  0  0  0  0  0  0  0  0  0  0
   -0.5000    1.5388    0.0000 C   0  0  0  0  0  0  0  0  0  0  0  0
   -0.5000    2.5388    0.0000 C   0  0  0  0  0  0  0  0  0  0  0  0
   -1.3660    3.0388    0.0000 C   0  0  0  0  0  0  0  0  0  0  0  0
   -1.3660    4.0388    0.0000 C   0  0  0  0  0  0  0  0  0  0  0  0
   -0.5000    4.5388    0.0000 C   0  0  0  0  0  0  0  0  0  0  0  0
    0.3660    4.0388    0.0000 C   0  0  0  0  0  0  0  0  0  0  0  0
    0.3660    3.0388    0.0000 C   0  0  0  0  0  0  0  0  0  0  0  0
    0.3090    0.9511    0.0000 C   0  0  0  0  0  0  0  0  0  0  0  0
    1.2601    1.2601    0.0000 C   0  0  0  0  0  0  0  0  0  0  0  0
    1.4680    2.2382    0.0000 C   0  0  0  0  0  0  0  0  0  0  0  0
    2.4190    2.5472    0.0000 C   0  0  0  0  0  0  0  0  0  0  0  0
    3.1622    1.8781    0.0000 C   0  0  0  0  0  0  0  0  0  0  0  0
    4.1132    2.1871    0.0000 F   0  0  0  0  0  0  0  0  0  0  0  0
    2.9543    0.9000    0.0000 C   0  0  0  0  0  0  0  0  0  0  0  0
    2.0032    0.5909    0.0000 C   0  0  0  0  0  0  0  0  0  0  0  0
    0.0000   -0.0000    0.0000 N   0  0  0  0  0  0  0  0  0  0  0  0
    0.5878   -0.8090    0.0000 C   0  0  0  0  0  0  0  0  0  0  0  0
    1.5823   -0.7045    0.0000 C   0  0  0  0  0  0  0  0  0  0  0  0
    2.1701   -1.5135    0.0000 C   0  0  3  0  0  0  0  0  0  0  0  0
    1.7634   -2.4271    0.0000 O   0  0  0  0  0  0  0  0  0  0  0  0
    3.1646   -1.4090    0.0000 C   0  0  0  0  0  0  0  0  0  0  0  0
    3.7524   -2.2180    0.0000 C   0  0  3  0  0  0  0  0  0  0  0  0
    3.3457   -3.1315    0.0000 O   0  0  0  0  0  0  0  0  0  0  0  0
    4.7469   -2.1135    0.0000 C   0  0  0  0  0  0  0  0  0  0  0  0
    5.3347   -2.9225    0.0000 C   0  0  0  0  0  0  0  0  0  0  0  0
    4.9280   -3.8360    0.0000 O   0  0  0  0  0  0  0  0  0  0  0  0
    6.3292   -2.8180    0.0000 O   0  0  0  0  0  0  0  0  0  0  0  0
  1  2  1  0  0  0  0
  2  3  1  0  0  0  0
  2  4  1  0  0  0  0
  4 32  1  0  0  0  0
  4  5  2  0  0  0  0
  5  6  1  0  0  0  0
  5 17  1  0  0  0  0
  6  7  2  0  0  0  0
  6  8  1  0  0  0  0
  8  9  1  0  0  0  0
  9 16  1  0  0  0  0
  9 10  2  0  0  0  0
 10 11  1  0  0  0  0
 11 12  2  0  0  0  0
 12 13  1  0  0  0  0
 12 15  1  0  0  0  0
 13 14  1  0  0  0  0
 15 16  2  0  0  0  0
 17 18  1  0  0  0  0
 17 24  2  0  0  0  0
 18 23  1  0  0  0  0
 18 19  2  0  0  0  0
 19 20  1  0  0  0  0
 20 21  2  0  0  0  0
 21 22  1  0  0  0  0
 22 23  2  0  0  0  0
 24 25  1  0  0  0  0
 24 32  1  0  0  0  0
 25 31  1  0  0  0  0
 25 26  2  0  0  0  0
 26 27  1  0  0  0  0
 27 28  2  0  0  0  0
 28 29  1  0  0  0  0
 28 30  1  0  0  0  0
 30 31  2  0  0  0  0
 32 33  1  0  0  0  0
 33 34  1  0  0  0  0
 34 35  1  0  0  0  0
 35 36  1  0  0  0  0
 35 37  1  0  0  0  0
 37 38  1  0  0  0  0
 38 39  1  0  0  0  0
 38 40  1  0  0  0  0
 40 41  1  0  0  0  0
 41 42  1  0  0  0  0
 41 43  2  0  0  0  0
M  END
>  <Supplier>
www.ambinter.com

>  <Ambinter_reference>
Amb34922141

>  <MW>
588.666

$$$$
Amb35755578
 OpenBabel08272101522D

 46 50  0  0  1  0  0  0  0  0999 V2000
    1.3738    0.9981    0.0000 H   0  0  0  0  0  0  0  0  0  0  0  0
    0.9750    0.1025    0.0000 C   0  0  0  0  0  0  0  0  0  0  0  0
    1.5513   -0.6907    0.0000 C   0  0  0  0  0  0  0  0  0  0  0  0
    2.5263   -0.5882    0.0000 H   0  0  0  0  0  0  0  0  0  0  0  0
    1.1525   -1.5863    0.0000 C   0  0  0  0  0  0  0  0  0  0  0  0
    1.7288   -2.3795    0.0000 H   0  0  0  0  0  0  0  0  0  0  0  0
    0.1775   -1.6888    0.0000 C   0  0  0  0  0  0  0  0  0  0  0  0
   -0.6200   -3.4801    0.0000 C   0  0  0  0  0  0  0  0  0  0  0  0
   -0.1298   -4.3291    0.0000 C   0  0  0  0  0  0  0  0  0  0  0  0
   -0.7858   -5.0577    0.0000 C   0  0  0  0  0  0  0  0  0  0  0  0
   -0.5820   -6.0166    0.0000 C   0  0  0  0  0  0  0  0  0  0  0  0
   -1.3106   -6.6726    0.0000 C   0  0  0  0  0  0  0  0  0  0  0  0
    0.3504   -6.3196    0.0000 C   0  0  0  0  0  0  0  0  0  0  0  0
   -1.6815   -4.6589    0.0000 N   0  0  0  0  0  0  0  0  0  0  0  0
   -2.5305   -5.1491    0.0000 C   0  0  0  0  0  0  0  0  0  0  0  0
   -3.3796   -4.6589    0.0000 C   0  0  0  0  0  0  0  0  0  0  0  0
   -4.2286   -5.1491    0.0000 C   0  0  3  0  0  0  0  0  0  0  0  0
   -4.2286   -6.1295    0.0000 C   0  0  0  0  0  0  0  0  0  0  0  0
   -5.0776   -6.6197    0.0000 C   0  0  3  0  0  0  0  0  0  0  0  0
   -5.0776   -7.6001    0.0000 O   0  0  0  0  0  0  0  0  0  0  0  0
   -5.9267   -6.1295    0.0000 C   0  0  0  0  0  0  0  0  0  0  0  0
   -5.9267   -5.1491    0.0000 C   0  0  0  0  0  0  0  0  0  0  0  0
   -6.7757   -4.6589    0.0000 O   0  0  0  0  0  0  0  0  0  0  0  0
   -5.0776   -4.6589    0.0000 O   0  0  0  0  0  0  0  0  0  0  0  0
   -1.5790   -3.6839    0.0000 C   0  0  0  0  0  0  0  0  0  0  0  0
   -2.3076   -3.0279    0.0000 C   0  0  0  0  0  0  0  0  0  0  0  0
   -3.2400   -3.3308    0.0000 C   0  0  0  0  0  0  0  0  0  0  0  0
   -3.9685   -2.6748    0.0000 C   0  0  0  0  0  0  0  0  0  0  0  0
   -3.7647   -1.7159    0.0000 C   0  0  0  0  0  0  0  0  0  0  0  0
   -4.4933   -1.0598    0.0000 F   0  0  0  0  0  0  0  0  0  0  0  0
   -2.8323   -1.4129    0.0000 C   0  0  0  0  0  0  0  0  0  0  0  0
   -2.1037   -2.0689    0.0000 C   0  0  0  0  0  0  0  0  0  0  0  0
    0.8452   -4.4316    0.0000 C   0  0  0  0  0  0  0  0  0  0  0  0
    1.2440   -5.3272    0.0000 O   0  0  0  0  0  0  0  0  0  0  0  0
    1.4215   -3.6384    0.0000 N   0  0  0  0  0  0  0  0  0  0  0  0
    2.3965   -3.7409    0.0000 C   0  0  0  0  0  0  0  0  0  0  0  0
    2.9727   -2.9477    0.0000 C   0  0  0  0  0  0  0  0  0  0  0  0
    3.9478   -3.0502    0.0000 C   0  0  0  0  0  0  0  0  0  0  0  0
    4.3465   -3.9459    0.0000 C   0  0  0  0  0  0  0  0  0  0  0  0
    5.3215   -4.0483    0.0000 O   0  0  0  0  0  0  0  0  0  0  0  0
    3.7703   -4.7390    0.0000 C   0  0  0  0  0  0  0  0  0  0  0  0
    2.7952   -4.6365    0.0000 C   0  0  0  0  0  0  0  0  0  0  0  0
   -0.3988   -0.8956    0.0000 C   0  0  0  0  0  0  0  0  0  0  0  0
   -1.3738   -0.9981    0.0000 H   0  0  0  0  0  0  0  0  0  0  0  0
    0.0000   -0.0000    0.0000 C   0  0  0  0  0  0  0  0  0  0  0  0
   -0.5763    0.7932    0.0000 H   0  0  0  0  0  0  0  0  0  0  0  0
  1  2  1  0  0  0  0
  2 45  1  0  0  0  0
  2  3  2  0  0  0  0
  3  4  1  0  0  0  0
  3  5  1  0  0  0  0
  5  6  1  0  0  0  0
  5  7  2  0  0  0  0
  7  8  1  0  0  0  0
  7 43  1  0  0  0  0
  8 25  2  0  0  0  0
  8  9  1  0  0  0  0
  9 10  2  0  0  0  0
  9 33  1  0  0  0  0
 10 11  1  0  0  0  0
 10 14  1  0  0  0  0
 11 12  1  0  0  0  0
 11 13  1  0  0  0  0
 14 15  1  0  0  0  0
 14 25  1  0  0  0  0
 15 16  1  0  0  0  0
 16 17  1  0  0  0  0
 17 24  1  0  0  0  0
 17 18  1  0  0  0  0
 18 19  1  0  0  0  0
 19 20  1  0  0  0  0
 19 21  1  0  0  0  0
 21 22  1  0  0  0  0
 22 23  2  0  0  0  0
 22 24  1  0  0  0  0
 25 26  1  0  0  0  0
 26 32  1  0  0  0  0
 26 27  2  0  0  0  0
 27 28  1  0  0  0  0
 28 29  2  0  0  0  0
 29 30  1  0  0  0  0
 29 31  1  0  0  0  0
 31 32  2  0  0  0  0
 33 34  2  0  0  0  0
 33 35  1  0  0  0  0
 35 36  1  0  0  0  0
 36 42  1  0  0  0  0
 36 37  2  0  0  0  0
 37 38  1  0  0  0  0
 38 39  2  0  0  0  0
 39 40  1  0  0  0  0
 39 41  1  0  0  0  0
 41 42  2  0  0  0  0
 43 44  1  0  0  0  0
 43 45  2  0  0  0  0
 45 46  1  0  0  0  0
M  ISO  5   1   2   4   2   6   2  44   2  46   2
M  END
>  <Supplier>
www.ambinter.com

>  <Ambinter_reference>
Amb35755578

>  <MW>
561.655

$$$$
Amb35755585
 OpenBabel08272101522D

 41 44  0  0  1  0  0  0  0  0999 V2000
   -2.5823   -0.7045    0.0000 C   0  0  0  0  0  0  0  0  0  0  0  0
   -1.5878   -0.8090    0.0000 C   0  0  0  0  0  0  0  0  0  0  0  0
   -1.1810   -1.7226    0.0000 C   0  0  0  0  0  0  0  0  0  0  0  0
   -1.0000    0.0000    0.0000 C   0  0  0  0  0  0  0  0  0  0  0  0
   -1.3090    0.9511    0.0000 C   0  0  0  0  0  0  0  0  0  0  0  0
   -2.2601    1.2601    0.0000 C   0  0  0  0  0  0  0  0  0  0  0  0
   -2.4680    2.2382    0.0000 O   0  0  0  0  0  0  0  0  0  0  0  0
   -3.0032    0.5909    0.0000 N   0  0  0  0  0  0  0  0  0  0  0  0
   -3.9543    0.9000    0.0000 C   0  0  0  0  0  0  0  0  0  0  0  0
   -4.6974    0.2308    0.0000 C   0  0  0  0  0  0  0  0  0  0  0  0
   -5.6485    0.5398    0.0000 C   0  0  0  0  0  0  0  0  0  0  0  0
   -5.8564    1.5180    0.0000 C   0  0  0  0  0  0  0  0  0  0  0  0
   -5.1132    2.1871    0.0000 C   0  0  0  0  0  0  0  0  0  0  0  0
   -4.1622    1.8781    0.0000 C   0  0  0  0  0  0  0  0  0  0  0  0
   -0.5000    1.5388    0.0000 C   0  0  0  0  0  0  0  0  0  0  0  0
   -0.5000    2.5388    0.0000 C   0  0  0  0  0  0  0  0  0  0  0  0
   -1.3660    3.0388    0.0000 C   0  0  0  0  0  0  0  0  0  0  0  0
   -1.3660    4.0388    0.0000 C   0  0  0  0  0  0  0  0  0  0  0  0
   -0.5000    4.5388    0.0000 C   0  0  0  0  0  0  0  0  0  0  0  0
    0.3660    4.0388    0.0000 C   0  0  0  0  0  0  0  0  0  0  0  0
    0.3660    3.0388    0.0000 C   0  0  0  0  0  0  0  0  0  0  0  0
    0.3090    0.9511    0.0000 C   0  0  0  0  0  0  0  0  0  0  0  0
    1.2601    1.2601    0.0000 C   0  0  0  0  0  0  0  0  0  0  0  0
    1.4680    2.2382    0.0000 C   0  0  0  0  0  0  0  0  0  0  0  0
    2.4190    2.5472    0.0000 C   0  0  0  0  0  0  0  0  0  0  0  0
    3.1622    1.8781    0.0000 C   0  0  0  0  0  0  0  0  0  0  0  0
    2.9543    0.9000    0.0000 C   0  0  0  0  0  0  0  0  0  0  0  0
    2.0032    0.5909    0.0000 C   0  0  0  0  0  0  0  0  0  0  0  0
    0.0000   -0.0000    0.0000 N   0  0  0  0  0  0  0  0  0  0  0  0
    0.5878   -0.8090    0.0000 C   0  0  0  0  0  0  0  0  0  0  0  0
    1.5823   -0.7045    0.0000 C   0  0  0  0  0  0  0  0  0  0  0  0
    2.1701   -1.5135    0.0000 C   0  0  3  0  0  0  0  0  0  0  0  0
    1.7634   -2.4271    0.0000 O   0  0  0  0  0  0  0  0  0  0  0  0
    3.1646   -1.4090    0.0000 C   0  0  0  0  0  0  0  0  0  0  0  0
    3.7524   -2.2180    0.0000 C   0  0  3  0  0  0  0  0  0  0  0  0
    3.3457   -3.1315    0.0000 O   0  0  0  0  0  0  0  0  0  0  0  0
    4.7469   -2.1135    0.0000 C   0  0  0  0  0  0  0  0  0  0  0  0
    5.3347   -2.9225    0.0000 C   0  0  0  0  0  0  0  0  0  0  0  0
    4.9280   -3.8360    0.0000 O   0  0  0  0  0  0  0  0  0  0  0  0
    6.3292   -2.8180    0.0000 O   0  0  0  0  0  0  0  0  0  0  0  0
    6.9170   -3.6270    0.0000 Na  0  0  0  0  0  0  0  0  0  0  0  0
  1  2  1  0  0  0  0
  2  3  1  0  0  0  0
  2  4  1  0  0  0  0
  4 29  1  0  0  0  0
  4  5  2  0  0  0  0
  5  6  1  0  0  0  0
  5 15  1  0  0  0  0
  6  7  2  0  0  0  0
  6  8  1  0  0  0  0
  8  9  1  0  0  0  0
  9 14  1  0  0  0  0
  9 10  2  0  0  0  0
 10 11  1  0  0  0  0
 11 12  2  0  0  0  0
 12 13  1  0  0  0  0
 13 14  2  0  0  0  0
 15 16  1  0  0  0  0
 15 22  2  0  0  0  0
 16 21  1  0  0  0  0
 16 17  2  0  0  0  0
 17 18  1  0  0  0  0
 18 19  2  0  0  0  0
 19 20  1  0  0  0  0
 20 21  2  0  0  0  0
 22 23  1  0  0  0  0
 22 29  1  0  0  0  0
 23 28  1  0  0  0  0
 23 24  2  0  0  0  0
 24 25  1  0  0  0  0
 25 26  2  0  0  0  0
 26 27  1  0  0  0  0
 27 28  2  0  0  0  0
 29 30  1  0  0  0  0
 30 31  1  0  0  0  0
 31 32  1  0  0  0  0
 32 33  1  0  0  0  0
 32 34  1  0  0  0  0
 34 35  1  0  0  0  0
 35 36  1  0  0  0  0
 35 37  1  0  0  0  0
 37 38  1  0  0  0  0
 38 39  2  0  0  0  0
 38 40  1  0  0  0  0
 40 41  1  0  0  0  0
M  END
>  <Supplier>
www.ambinter.com

>  <Ambinter_reference>
Amb35755585

>  <MW>
562.631

$$$$
Amb35755634
 OpenBabel08272101522D

 44 45  0  0  1  0  0  0  0  0999 V2000
   14.6367   -0.5000    0.0000 Na  0  3  0  0  0 15  0  0  0  0  0  0
   -2.4180    0.3321    0.0000 Na  0  3  0  0  0 15  0  0  0  0  0  0
    4.7251   -5.7433    0.0000 C   0  0  0  0  0  0  0  0  0  0  0  0
    5.7197   -5.8479    0.0000 C   0  0  0  0  0  0  0  0  0  0  0  0
    6.1264   -6.7614    0.0000 C   0  0  0  0  0  0  0  0  0  0  0  0
    6.3074   -5.0388    0.0000 C   0  0  0  0  0  0  0  0  0  0  0  0
    5.9984   -4.0878    0.0000 C   0  0  0  0  0  0  0  0  0  0  0  0
    5.0474   -3.7788    0.0000 C   0  0  0  0  0  0  0  0  0  0  0  0
    4.8395   -2.8006    0.0000 O   0  0  0  0  0  0  0  0  0  0  0  0
    4.3042   -4.4479    0.0000 N   0  0  0  0  0  0  0  0  0  0  0  0
    3.3532   -4.1389    0.0000 C   0  0  0  0  0  0  0  0  0  0  0  0
    2.6100   -4.8080    0.0000 C   0  0  0  0  0  0  0  0  0  0  0  0
    1.6590   -4.4990    0.0000 C   0  0  0  0  0  0  0  0  0  0  0  0
    1.4511   -3.5208    0.0000 C   0  0  0  0  0  0  0  0  0  0  0  0
    0.5000   -3.2118    0.0000 O   0  5  0  0  0  0  0  0  0  0  0  0
    2.1942   -2.8517    0.0000 C   0  0  0  0  0  0  0  0  0  0  0  0
    3.1453   -3.1607    0.0000 C   0  0  0  0  0  0  0  0  0  0  0  0
    6.8074   -3.5000    0.0000 C   0  0  0  0  0  0  0  0  0  0  0  0
    6.8074   -2.5000    0.0000 C   0  0  0  0  0  0  0  0  0  0  0  0
    5.9414   -2.0000    0.0000 C   0  0  0  0  0  0  0  0  0  0  0  0
    5.9414   -1.0000    0.0000 C   0  0  0  0  0  0  0  0  0  0  0  0
    6.8074   -0.5000    0.0000 C   0  0  0  0  0  0  0  0  0  0  0  0
    7.6735   -1.0000    0.0000 C   0  0  0  0  0  0  0  0  0  0  0  0
    7.6735   -2.0000    0.0000 C   0  0  0  0  0  0  0  0  0  0  0  0
    7.6165   -4.0878    0.0000 C   0  0  0  0  0  0  0  0  0  0  0  0
    8.5675   -3.7788    0.0000 C   0  0  0  0  0  0  0  0  0  0  0  0
    8.7754   -2.8006    0.0000 C   0  0  0  0  0  0  0  0  0  0  0  0
    9.7265   -2.4916    0.0000 C   0  0  0  0  0  0  0  0  0  0  0  0
   10.4696   -3.1607    0.0000 C   0  0  0  0  0  0  0  0  0  0  0  0
   11.4207   -2.8517    0.0000 F   0  0  0  0  0  0  0  0  0  0  0  0
   10.2617   -4.1389    0.0000 C   0  0  0  0  0  0  0  0  0  0  0  0
    9.3107   -4.4479    0.0000 C   0  0  0  0  0  0  0  0  0  0  0  0
    7.3074   -5.0388    0.0000 N   0  0  0  0  0  0  0  0  0  0  0  0
    7.8952   -5.8479    0.0000 C   0  0  0  0  0  0  0  0  0  0  0  0
    8.8898   -5.7433    0.0000 C   0  0  0  0  0  0  0  0  0  0  0  0
    9.4775   -6.5523    0.0000 C   0  0  3  0  0  0  0  0  0  0  0  0
    9.0708   -7.4659    0.0000 O   0  0  0  0  0  0  0  0  0  0  0  0
   10.4721   -6.4478    0.0000 C   0  0  0  0  0  0  0  0  0  0  0  0
   11.0598   -7.2568    0.0000 C   0  0  3  0  0  0  0  0  0  0  0  0
   10.6531   -8.1704    0.0000 O   0  0  0  0  0  0  0  0  0  0  0  0
   12.0544   -7.1523    0.0000 C   0  0  0  0  0  0  0  0  0  0  0  0
   12.6422   -7.9613    0.0000 C   0  0  0  0  0  0  0  0  0  0  0  0
   12.2354   -8.8749    0.0000 O   0  5  0  0  0  0  0  0  0  0  0  0
   13.6367   -7.8568    0.0000 O   0  0  0  0  0  0  0  0  0  0  0  0
  3  4  1  0  0  0  0
  4  5  1  0  0  0  0
  4  6  1  0  0  0  0
  6 33  1  0  0  0  0
  6  7  2  0  0  0  0
  7  8  1  0  0  0  0
  7 18  1  0  0  0  0
  8  9  2  0  0  0  0
  8 10  1  0  0  0  0
 10 11  1  0  0  0  0
 11 17  1  0  0  0  0
 11 12  2  0  0  0  0
 12 13  1  0  0  0  0
 13 14  2  0  0  0  0
 14 15  1  0  0  0  0
 14 16  1  0  0  0  0
 16 17  2  0  0  0  0
 18 19  1  0  0  0  0
 18 25  2  0  0  0  0
 19 24  1  0  0  0  0
 19 20  2  0  0  0  0
 20 21  1  0  0  0  0
 21 22  2  0  0  0  0
 22 23  1  0  0  0  0
 23 24  2  0  0  0  0
 25 26  1  0  0  0  0
 25 33  1  0  0  0  0
 26 32  1  0  0  0  0
 26 27  2  0  0  0  0
 27 28  1  0  0  0  0
 28 29  2  0  0  0  0
 29 30  1  0  0  0  0
 29 31  1  0  0  0  0
 31 32  2  0  0  0  0
 33 34  1  0  0  0  0
 34 35  1  0  0  0  0
 35 36  1  0  0  0  0
 36 37  1  0  0  0  0
 36 38  1  0  0  0  0
 38 39  1  0  0  0  0
 39 40  1  0  0  0  0
 39 41  1  0  0  0  0
 41 42  1  0  0  0  0
 42 43  1  0  0  0  0
 42 44  2  0  0  0  0
M  CHG  4   1   1   2   1  15  -1  43  -1
M  END
>  <Supplier>
www.ambinter.com

>  <Ambinter_reference>
Amb35755634

>  <MW>
618.603

$$$$
Amb35755715
 OpenBabel08272101522D

 43 46  0  0  1  0  0  0  0  0999 V2000
    2.5823    0.7045    0.0000 C   0  0  0  0  0  0  0  0  0  0  0  0
    1.5878    0.8090    0.0000 C   0  0  0  0  0  0  0  0  0  0  0  0
    1.1810    1.7226    0.0000 C   0  0  0  0  0  0  0  0  0  0  0  0
    1.0000    0.0000    0.0000 C   0  0  0  0  0  0  0  0  0  0  0  0
    1.3090   -0.9511    0.0000 C   0  0  0  0  0  0  0  0  0  0  0  0
    2.2601   -1.2601    0.0000 C   0  0  0  0  0  0  0  0  0  0  0  0
    2.4680   -2.2382    0.0000 O   0  0  0  0  0  0  0  0  0  0  0  0
    3.0032   -0.5909    0.0000 N   0  0  0  0  0  0  0  0  0  0  0  0
    3.9543   -0.9000    0.0000 C   0  0  0  0  0  0  0  0  0  0  0  0
    4.6974   -0.2308    0.0000 C   0  0  0  0  0  0  0  0  0  0  0  0
    5.6485   -0.5398    0.0000 C   0  0  0  0  0  0  0  0  0  0  0  0
    5.8564   -1.5180    0.0000 C   0  0  0  0  0  0  0  0  0  0  0  0
    5.1132   -2.1871    0.0000 C   0  0  0  0  0  0  0  0  0  0  0  0
    4.1622   -1.8781    0.0000 C   0  0  0  0  0  0  0  0  0  0  0  0
    3.4190   -2.5472    0.0000 O   0  0  0  0  0  0  0  0  0  0  0  0
    0.5000   -1.5388    0.0000 C   0  0  0  0  0  0  0  0  0  0  0  0
    0.5000   -2.5388    0.0000 C   0  0  0  0  0  0  0  0  0  0  0  0
    1.3660   -3.0388    0.0000 C   0  0  0  0  0  0  0  0  0  0  0  0
    1.3660   -4.0388    0.0000 C   0  0  0  0  0  0  0  0  0  0  0  0
    0.5000   -4.5388    0.0000 C   0  0  0  0  0  0  0  0  0  0  0  0
   -0.3660   -4.0388    0.0000 C   0  0  0  0  0  0  0  0  0  0  0  0
   -0.3660   -3.0388    0.0000 C   0  0  0  0  0  0  0  0  0  0  0  0
   -0.3090   -0.9511    0.0000 C   0  0  0  0  0  0  0  0  0  0  0  0
   -1.2601   -1.2601    0.0000 C   0  0  0  0  0  0  0  0  0  0  0  0
   -1.4680   -2.2382    0.0000 C   0  0  0  0  0  0  0  0  0  0  0  0
   -2.4190   -2.5472    0.0000 C   0  0  0  0  0  0  0  0  0  0  0  0
   -3.1622   -1.8781    0.0000 C   0  0  0  0  0  0  0  0  0  0  0  0
   -4.1132   -2.1871    0.0000 F   0  0  0  0  0  0  0  0  0  0  0  0
   -2.9543   -0.9000    0.0000 C   0  0  0  0  0  0  0  0  0  0  0  0
   -2.0032   -0.5909    0.0000 C   0  0  0  0  0  0  0  0  0  0  0  0
   -0.0000   -0.0000    0.0000 N   0  0  0  0  0  0  0  0  0  0  0  0
   -0.5878    0.8090    0.0000 C   0  0  0  0  0  0  0  0  0  0  0  0
   -1.5823    0.7045    0.0000 C   0  0  0  0  0  0  0  0  0  0  0  0
   -2.1701    1.5135    0.0000 C   0  0  3  0  0  0  0  0  0  0  0  0
   -1.7634    2.4271    0.0000 O   0  0  0  0  0  0  0  0  0  0  0  0
   -3.1646    1.4090    0.0000 C   0  0  0  0  0  0  0  0  0  0  0  0
   -3.7524    2.2180    0.0000 C   0  0  3  0  0  0  0  0  0  0  0  0
   -3.3457    3.1315    0.0000 O   0  0  0  0  0  0  0  0  0  0  0  0
   -4.7469    2.1135    0.0000 C   0  0  0  0  0  0  0  0  0  0  0  0
   -5.3347    2.9225    0.0000 C   0  0  0  0  0  0  0  0  0  0  0  0
   -4.9280    3.8360    0.0000 O   0  0  0  0  0  0  0  0  0  0  0  0
   -6.3292    2.8180    0.0000 O   0  0  0  0  0  0  0  0  0  0  0  0
   -6.9170    3.6270    0.0000 Na  0  0  0  0  0  0  0  0  0  0  0  0
  1  2  1  0  0  0  0
  2  3  1  0  0  0  0
  2  4  1  0  0  0  0
  4 31  1  0  0  0  0
  4  5  2  0  0  0  0
  5  6  1  0  0  0  0
  5 16  1  0  0  0  0
  6  7  2  0  0  0  0
  6  8  1  0  0  0  0
  8  9  1  0  0  0  0
  9 14  1  0  0  0  0
  9 10  2  0  0  0  0
 10 11  1  0  0  0  0
 11 12  2  0  0  0  0
 12 13  1  0  0  0  0
 13 14  2  0  0  0  0
 14 15  1  0  0  0  0
 16 17  1  0  0  0  0
 16 23  2  0  0  0  0
 17 22  1  0  0  0  0
 17 18  2  0  0  0  0
 18 19  1  0  0  0  0
 19 20  2  0  0  0  0
 20 21  1  0  0  0  0
 21 22  2  0  0  0  0
 23 24  1  0  0  0  0
 23 31  1  0  0  0  0
 24 30  1  0  0  0  0
 24 25  2  0  0  0  0
 25 26  1  0  0  0  0
 26 27  2  0  0  0  0
 27 28  1  0  0  0  0
 27 29  1  0  0  0  0
 29 30  2  0  0  0  0
 31 32  1  0  0  0  0
 32 33  1  0  0  0  0
 33 34  1  0  0  0  0
 34 35  1  0  0  0  0
 34 36  1  0  0  0  0
 36 37  1  0  0  0  0
 37 38  1  0  0  0  0
 37 39  1  0  0  0  0
 39 40  1  0  0  0  0
 40 41  2  0  0  0  0
 40 42  1  0  0  0  0
 42 43  1  0  0  0  0
M  END
>  <Supplier>
www.ambinter.com

>  <Ambinter_reference>
Amb35755715

>  <MW>
596.621

$$$$
Amb35755732
 OpenBabel08272101522D

 41 45  0  0  1  0  0  0  0  0999 V2000
   -4.0069   -0.3543    0.0000 C   0  0  0  0  0  0  0  0  0  0  0  0
   -3.2637    0.3149    0.0000 C   0  0  0  0  0  0  0  0  0  0  0  0
   -2.3127    0.0058    0.0000 C   0  0  0  0  0  0  0  0  0  0  0  0
   -3.4716    1.2930    0.0000 C   0  0  0  0  0  0  0  0  0  0  0  0
   -4.3852    1.6997    0.0000 C   0  0  0  0  0  0  0  0  0  0  0  0
   -5.2512    1.1997    0.0000 C   0  0  0  0  0  0  0  0  0  0  0  0
   -6.1172    1.6997    0.0000 O   0  0  0  0  0  0  0  0  0  0  0  0
   -5.2512    0.1997    0.0000 N   0  0  0  0  0  0  0  0  0  0  0  0
   -6.1172   -0.3003    0.0000 C   0  0  0  0  0  0  0  0  0  0  0  0
   -6.1172   -1.3003    0.0000 C   0  0  0  0  0  0  0  0  0  0  0  0
   -6.9833   -1.8003    0.0000 C   0  0  0  0  0  0  0  0  0  0  0  0
   -7.8493   -1.3003    0.0000 C   0  0  0  0  0  0  0  0  0  0  0  0
   -7.8493   -0.3003    0.0000 C   0  0  0  0  0  0  0  0  0  0  0  0
   -6.9833    0.1997    0.0000 C   0  0  0  0  0  0  0  0  0  0  0  0
   -6.9833    1.1997    0.0000 O   0  0  0  0  0  0  0  0  0  0  0  0
   -4.2807    2.6943    0.0000 C   0  0  0  0  0  0  0  0  0  0  0  0
   -5.0238    3.3634    0.0000 C   0  0  0  0  0  0  0  0  0  0  0  0
   -5.9749    3.0544    0.0000 C   0  0  0  0  0  0  0  0  0  0  0  0
   -6.7180    3.7235    0.0000 C   0  0  0  0  0  0  0  0  0  0  0  0
   -6.5101    4.7017    0.0000 C   0  0  0  0  0  0  0  0  0  0  0  0
   -5.5590    5.0107    0.0000 C   0  0  0  0  0  0  0  0  0  0  0  0
   -4.8159    4.3415    0.0000 C   0  0  0  0  0  0  0  0  0  0  0  0
   -3.3025    2.9022    0.0000 C   0  0  0  0  0  0  0  0  0  0  0  0
   -2.8958    3.8157    0.0000 C   0  0  0  0  0  0  0  0  0  0  0  0
   -3.4836    4.6247    0.0000 C   0  0  0  0  0  0  0  0  0  0  0  0
   -3.0768    5.5383    0.0000 C   0  0  0  0  0  0  0  0  0  0  0  0
   -2.0823    5.6428    0.0000 C   0  0  0  0  0  0  0  0  0  0  0  0
   -1.6756    6.5564    0.0000 F   0  0  0  0  0  0  0  0  0  0  0  0
   -1.4945    4.8338    0.0000 C   0  0  0  0  0  0  0  0  0  0  0  0
   -1.9013    3.9202    0.0000 C   0  0  0  0  0  0  0  0  0  0  0  0
   -2.8025    2.0361    0.0000 N   0  0  0  0  0  0  0  0  0  0  0  0
   -1.8080    1.9316    0.0000 C   0  0  0  0  0  0  0  0  0  0  0  0
   -1.4013    1.0181    0.0000 C   0  0  0  0  0  0  0  0  0  0  0  0
   -0.4067    0.9135    0.0000 C   0  0  3  0  0  0  0  0  0  0  0  0
    0.1810    1.7226    0.0000 C   0  0  0  0  0  0  0  0  0  0  0  0
    1.1756    1.6180    0.0000 C   0  0  3  0  0  0  0  0  0  0  0  0
    1.7634    2.4271    0.0000 O   0  0  0  0  0  0  0  0  0  0  0  0
    1.5823    0.7045    0.0000 C   0  0  0  0  0  0  0  0  0  0  0  0
    0.9945   -0.1045    0.0000 C   0  0  0  0  0  0  0  0  0  0  0  0
    1.4013   -1.0181    0.0000 O   0  0  0  0  0  0  0  0  0  0  0  0
    0.0000    0.0000    0.0000 O   0  0  0  0  0  0  0  0  0  0  0  0
  1  2  1  0  0  0  0
  2  3  1  0  0  0  0
  2  4  1  0  0  0  0
  4 31  1  0  0  0  0
  4  5  2  0  0  0  0
  5  6  1  0  0  0  0
  5 16  1  0  0  0  0
  6  7  2  0  0  0  0
  6  8  1  0  0  0  0
  8  9  1  0  0  0  0
  9 14  1  0  0  0  0
  9 10  2  0  0  0  0
 10 11  1  0  0  0  0
 11 12  2  0  0  0  0
 12 13  1  0  0  0  0
 13 14  2  0  0  0  0
 14 15  1  0  0  0  0
 16 17  1  0  0  0  0
 16 23  2  0  0  0  0
 17 22  1  0  0  0  0
 17 18  2  0  0  0  0
 18 19  1  0  0  0  0
 19 20  2  0  0  0  0
 20 21  1  0  0  0  0
 21 22  2  0  0  0  0
 23 24  1  0  0  0  0
 23 31  1  0  0  0  0
 24 30  1  0  0  0  0
 24 25  2  0  0  0  0
 25 26  1  0  0  0  0
 26 27  2  0  0  0  0
 27 28  1  0  0  0  0
 27 29  1  0  0  0  0
 29 30  2  0  0  0  0
 31 32  1  0  0  0  0
 32 33  1  0  0  0  0
 33 34  1  0  0  0  0
 34 41  1  0  0  0  0
 34 35  1  0  0  0  0
 35 36  1  0  0  0  0
 36 37  1  0  0  0  0
 36 38  1  0  0  0  0
 38 39  1  0  0  0  0
 39 40  2  0  0  0  0
 39 41  1  0  0  0  0
M  END
>  <Supplier>
www.ambinter.com

>  <Ambinter_reference>
Amb35755732

>  <MW>
556.624

$$$$
Amb35790717
 OpenBabel08272101522D

 53 56  0  0  1  0  0  0  0  0999 V2000
    1.1810   -1.7226    0.0000 C   0  0  0  0  0  0  0  0  0  0  0  0
    1.5878   -0.8090    0.0000 C   0  0  0  0  0  0  0  0  0  0  0  0
    2.5823   -0.7045    0.0000 C   0  0  0  0  0  0  0  0  0  0  0  0
    1.0000    0.0000    0.0000 C   0  0  0  0  0  0  0  0  0  0  0  0
    1.3090    0.9511    0.0000 C   0  0  0  0  0  0  0  0  0  0  0  0
    2.2601    1.2601    0.0000 C   0  0  0  0  0  0  0  0  0  0  0  0
    2.4680    2.2382    0.0000 O   0  0  0  0  0  0  0  0  0  0  0  0
    3.0032    0.5909    0.0000 N   0  0  0  0  0  0  0  0  0  0  0  0
    3.9543    0.9000    0.0000 C   0  0  0  0  0  0  0  0  0  0  0  0
    4.6974    0.2308    0.0000 C   0  0  0  0  0  0  0  0  0  0  0  0
    5.6485    0.5398    0.0000 C   0  0  0  0  0  0  0  0  0  0  0  0
    5.8564    1.5180    0.0000 C   0  0  0  0  0  0  0  0  0  0  0  0
    5.1132    2.1871    0.0000 C   0  0  0  0  0  0  0  0  0  0  0  0
    4.1622    1.8781    0.0000 C   0  0  0  0  0  0  0  0  0  0  0  0
    0.5000    1.5388    0.0000 C   0  0  0  0  0  0  0  0  0  0  0  0
    0.5000    2.5388    0.0000 C   0  0  0  0  0  0  0  0  0  0  0  0
    1.3660    3.0388    0.0000 C   0  0  0  0  0  0  0  0  0  0  0  0
    1.3660    4.0388    0.0000 C   0  0  0  0  0  0  0  0  0  0  0  0
    0.5000    4.5388    0.0000 C   0  0  0  0  0  0  0  0  0  0  0  0
   -0.3660    4.0388    0.0000 C   0  0  0  0  0  0  0  0  0  0  0  0
   -0.3660    3.0388    0.0000 C   0  0  0  0  0  0  0  0  0  0  0  0
   -0.3090    0.9511    0.0000 C   0  0  0  0  0  0  0  0  0  0  0  0
   -1.2601    1.2601    0.0000 C   0  0  0  0  0  0  0  0  0  0  0  0
   -1.4680    2.2382    0.0000 C   0  0  0  0  0  0  0  0  0  0  0  0
   -2.4190    2.5472    0.0000 C   0  0  0  0  0  0  0  0  0  0  0  0
   -3.1622    1.8781    0.0000 C   0  0  0  0  0  0  0  0  0  0  0  0
   -4.1132    2.1871    0.0000 F   0  0  0  0  0  0  0  0  0  0  0  0
   -2.9543    0.9000    0.0000 C   0  0  0  0  0  0  0  0  0  0  0  0
   -2.0032    0.5909    0.0000 C   0  0  0  0  0  0  0  0  0  0  0  0
    0.0000    0.0000    0.0000 N   0  0  0  0  0  0  0  0  0  0  0  0
   -0.5878   -0.8090    0.0000 C   0  0  0  0  0  0  0  0  0  0  0  0
   -1.5823   -0.7045    0.0000 C   0  0  0  0  0  0  0  0  0  0  0  0
   -2.1701   -1.5135    0.0000 C   0  0  3  0  0  0  0  0  0  0  0  0
   -3.1646   -1.4090    0.0000 O   0  0  0  0  0  0  0  0  0  0  0  0
   -1.7634   -2.4271    0.0000 C   0  0  0  0  0  0  0  0  0  0  0  0
   -2.3511   -3.2361    0.0000 C   0  0  3  0  0  0  0  0  0  0  0  0
   -3.3457   -3.1315    0.0000 O   0  0  0  0  0  0  0  0  0  0  0  0
   -1.9444   -4.1496    0.0000 C   0  0  0  0  0  0  0  0  0  0  0  0
   -2.5322   -4.9586    0.0000 C   0  0  0  0  0  0  0  0  0  0  0  0
   -3.5267   -4.8541    0.0000 O   0  0  0  0  0  0  0  0  0  0  0  0
   -2.1255   -5.8722    0.0000 C   0  0  0  0  0  0  0  0  0  0  0  0
   -2.7132   -6.6812    0.0000 C   0  0  0  0  0  0  0  0  0  0  0  0
   -2.3065   -7.5947    0.0000 C   0  0  1  0  0  0  0  0  0  0  0  0
   -1.4975   -8.1825    0.0000 H   0  0  0  0  0  0  0  0  0  0  0  0
   -1.3930   -7.1880    0.0000 O   0  0  0  0  0  0  0  0  0  0  0  0
   -2.8943   -8.4038    0.0000 C   0  0  0  0  0  0  0  0  0  0  0  0
   -2.4876   -9.3173    0.0000 C   0  0  1  0  0  0  0  0  0  0  0  0
   -1.6785   -9.9051    0.0000 H   0  0  0  0  0  0  0  0  0  0  0  0
   -1.5740   -8.9106    0.0000 O   0  0  0  0  0  0  0  0  0  0  0  0
   -3.0753  -10.1263    0.0000 C   0  0  0  0  0  0  0  0  0  0  0  0
   -2.6686  -11.0399    0.0000 C   0  0  0  0  0  0  0  0  0  0  0  0
   -3.2564  -11.8489    0.0000 O   0  0  0  0  0  0  0  0  0  0  0  0
   -1.6741  -11.1444    0.0000 O   0  0  0  0  0  0  0  0  0  0  0  0
  1  2  1  0  0  0  0
  2  3  1  0  0  0  0
  2  4  1  0  0  0  0
  4 30  1  0  0  0  0
  4  5  2  0  0  0  0
  5  6  1  0  0  0  0
  5 15  1  0  0  0  0
  6  7  2  0  0  0  0
  6  8  1  0  0  0  0
  8  9  1  0  0  0  0
  9 14  1  0  0  0  0
  9 10  2  0  0  0  0
 10 11  1  0  0  0  0
 11 12  2  0  0  0  0
 12 13  1  0  0  0  0
 13 14  2  0  0  0  0
 15 16  1  0  0  0  0
 15 22  2  0  0  0  0
 16 21  1  0  0  0  0
 16 17  2  0  0  0  0
 17 18  1  0  0  0  0
 18 19  2  0  0  0  0
 19 20  1  0  0  0  0
 20 21  2  0  0  0  0
 22 23  1  0  0  0  0
 22 30  1  0  0  0  0
 23 29  1  0  0  0  0
 23 24  2  0  0  0  0
 24 25  1  0  0  0  0
 25 26  2  0  0  0  0
 26 27  1  0  0  0  0
 26 28  1  0  0  0  0
 28 29  2  0  0  0  0
 30 31  1  0  0  0  0
 31 32  1  0  0  0  0
 32 33  1  0  0  0  0
 33 34  1  0  0  0  0
 33 35  1  0  0  0  0
 35 36  1  0  0  0  0
 36 37  1  0  0  0  0
 36 38  1  0  0  0  0
 38 39  1  0  0  0  0
 39 40  2  0  0  0  0
 39 41  1  0  0  0  0
 41 42  1  0  0  0  0
 42 43  1  0  0  0  0
 43 44  1  6  0  0  0
 43 45  1  0  0  0  0
 43 46  1  0  0  0  0
 46 47  1  0  0  0  0
 47 48  1  6  0  0  0
 47 49  1  0  0  0  0
 47 50  1  0  0  0  0
 50 51  1  0  0  0  0
 51 52  1  0  0  0  0
 51 53  2  0  0  0  0
M  END
>  <Supplier>
www.ambinter.com

>  <Ambinter_reference>
Amb35790717

>  <MW>
702.808

$$$$
Amb35790799
 OpenBabel08272101522D

 43 47  0  0  1  0  0  0  0  0999 V2000
   -2.4945   -0.9706    0.0000 C   0  0  0  0  0  0  0  0  0  0  0  0
   -1.4945   -0.9706    0.0000 C   0  0  0  0  0  0  0  0  0  0  0  0
   -0.9945   -1.8366    0.0000 C   0  0  0  0  0  0  0  0  0  0  0  0
   -0.9945   -0.1045    0.0000 C   0  0  0  0  0  0  0  0  0  0  0  0
   -1.4013    0.8090    0.0000 C   0  0  0  0  0  0  0  0  0  0  0  0
   -2.3794    1.0169    0.0000 C   0  0  0  0  0  0  0  0  0  0  0  0
   -2.6884    1.9680    0.0000 O   0  0  0  0  0  0  0  0  0  0  0  0
   -3.0485    0.2738    0.0000 N   0  0  0  0  0  0  0  0  0  0  0  0
   -4.0267    0.4817    0.0000 C   0  0  0  0  0  0  0  0  0  0  0  0
   -4.6958   -0.2614    0.0000 C   0  0  0  0  0  0  0  0  0  0  0  0
   -5.6740   -0.0535    0.0000 C   0  0  0  0  0  0  0  0  0  0  0  0
   -5.9830    0.8975    0.0000 C   0  0  0  0  0  0  0  0  0  0  0  0
   -5.3138    1.6407    0.0000 C   0  0  0  0  0  0  0  0  0  0  0  0
   -4.3357    1.4328    0.0000 C   0  0  0  0  0  0  0  0  0  0  0  0
   -0.6581    1.4781    0.0000 C   0  0  0  0  0  0  0  0  0  0  0  0
   -0.6581    2.4781    0.0000 C   0  0  0  0  0  0  0  0  0  0  0  0
   -1.5241    2.9781    0.0000 C   0  0  0  0  0  0  0  0  0  0  0  0
   -1.5241    3.9781    0.0000 C   0  0  0  0  0  0  0  0  0  0  0  0
   -0.6581    4.4781    0.0000 C   0  0  0  0  0  0  0  0  0  0  0  0
    0.2079    3.9781    0.0000 C   0  0  0  0  0  0  0  0  0  0  0  0
    0.2079    2.9781    0.0000 C   0  0  0  0  0  0  0  0  0  0  0  0
    1.0739    2.4781    0.0000 C   0  0  0  0  0  0  0  0  0  0  0  0
    1.9400    2.9781    0.0000 C   0  0  0  0  0  0  0  0  0  0  0  0
    2.8060    2.4781    0.0000 C   0  0  0  0  0  0  0  0  0  0  0  0
    3.6720    2.9781    0.0000 F   0  0  0  0  0  0  0  0  0  0  0  0
    2.8060    1.4781    0.0000 C   0  0  0  0  0  0  0  0  0  0  0  0
    1.9400    0.9781    0.0000 C   0  0  0  0  0  0  0  0  0  0  0  0
    1.0739    1.4781    0.0000 C   0  0  0  0  0  0  0  0  0  0  0  0
    0.2079    0.9781    0.0000 C   0  0  0  0  0  0  0  0  0  0  0  0
    0.0000   -0.0000    0.0000 N   0  0  0  0  0  0  0  0  0  0  0  0
    0.6691   -0.7431    0.0000 C   0  0  0  0  0  0  0  0  0  0  0  0
    1.6473   -0.5352    0.0000 C   0  0  0  0  0  0  0  0  0  0  0  0
    2.3164   -1.2784    0.0000 C   0  0  1  0  0  0  0  0  0  0  0  0
    3.2675   -1.5874    0.0000 H   0  0  0  0  0  0  0  0  0  0  0  0
    3.0596   -0.6092    0.0000 O   0  0  0  0  0  0  0  0  0  0  0  0
    2.0074   -2.2294    0.0000 C   0  0  0  0  0  0  0  0  0  0  0  0
    2.6765   -2.9726    0.0000 C   0  0  1  0  0  0  0  0  0  0  0  0
    3.6276   -3.2816    0.0000 H   0  0  0  0  0  0  0  0  0  0  0  0
    3.4197   -2.3034    0.0000 O   0  0  0  0  0  0  0  0  0  0  0  0
    2.3675   -3.9236    0.0000 C   0  0  0  0  0  0  0  0  0  0  0  0
    3.0366   -4.6668    0.0000 C   0  0  0  0  0  0  0  0  0  0  0  0
    2.7276   -5.6178    0.0000 O   0  0  0  0  0  0  0  0  0  0  0  0
    4.0148   -4.4589    0.0000 O   0  0  0  0  0  0  0  0  0  0  0  0
  1  2  1  0  0  0  0
  2  3  1  0  0  0  0
  2  4  1  0  0  0  0
  4 30  1  0  0  0  0
  4  5  2  0  0  0  0
  5  6  1  0  0  0  0
  5 15  1  0  0  0  0
  6  7  2  0  0  0  0
  6  8  1  0  0  0  0
  8  9  1  0  0  0  0
  9 14  1  0  0  0  0
  9 10  2  0  0  0  0
 10 11  1  0  0  0  0
 11 12  2  0  0  0  0
 12 13  1  0  0  0  0
 13 14  2  0  0  0  0
 15 29  1  0  0  0  0
 15 16  2  0  0  0  0
 16 21  1  0  0  0  0
 16 17  1  0  0  0  0
 17 18  2  0  0  0  0
 18 19  1  0  0  0  0
 19 20  2  0  0  0  0
 20 21  1  0  0  0  0
 21 22  2  0  0  0  0
 22 28  1  0  0  0  0
 22 23  1  0  0  0  0
 23 24  2  0  0  0  0
 24 25  1  0  0  0  0
 24 26  1  0  0  0  0
 26 27  2  0  0  0  0
 27 28  1  0  0  0  0
 28 29  2  0  0  0  0
 29 30  1  0  0  0  0
 30 31  1  0  0  0  0
 31 32  1  0  0  0  0
 32 33  1  0  0  0  0
 33 34  1  6  0  0  0
 33 35  1  0  0  0  0
 33 36  1  0  0  0  0
 36 37  1  0  0  0  0
 37 38  1  6  0  0  0
 37 39  1  0  0  0  0
 37 40  1  0  0  0  0
 40 41  1  0  0  0  0
 41 42  1  0  0  0  0
 41 43  2  0  0  0  0
M  END
>  <Supplier>
www.ambinter.com

>  <Ambinter_reference>
Amb35790799

>  <MW>
556.624

$$$$
Amb35791101
 OpenBabel08272101522D

 44 46  0  0  1  0  0  0  0  0999 V2000
   -2.4001    0.0274    0.0000 Ca  0  0  0  0  0 15  0  0  0  0  0  0
    3.7741   -5.7433    0.0000 C   0  0  0  0  0  0  0  0  0  0  0  0
    4.7686   -5.8479    0.0000 C   0  0  0  0  0  0  0  0  0  0  0  0
    5.1753   -6.7614    0.0000 C   0  0  0  0  0  0  0  0  0  0  0  0
    5.3564   -5.0388    0.0000 C   0  0  0  0  0  0  0  0  0  0  0  0
    5.0474   -4.0878    0.0000 C   0  0  0  0  0  0  0  0  0  0  0  0
    4.0963   -3.7788    0.0000 C   0  0  0  0  0  0  0  0  0  0  0  0
    3.8884   -2.8006    0.0000 O   0  0  0  0  0  0  0  0  0  0  0  0
    3.3532   -4.4479    0.0000 N   0  0  0  0  0  0  0  0  0  0  0  0
    2.4021   -4.1389    0.0000 C   0  0  0  0  0  0  0  0  0  0  0  0
    1.6590   -4.8080    0.0000 C   0  0  0  0  0  0  0  0  0  0  0  0
    0.7079   -4.4990    0.0000 C   0  0  0  0  0  0  0  0  0  0  0  0
    0.5000   -3.5208    0.0000 C   0  0  0  0  0  0  0  0  0  0  0  0
    1.2431   -2.8517    0.0000 C   0  0  0  0  0  0  0  0  0  0  0  0
    2.1942   -3.1607    0.0000 C   0  0  0  0  0  0  0  0  0  0  0  0
    5.8564   -3.5000    0.0000 C   0  0  0  0  0  0  0  0  0  0  0  0
    5.8564   -2.5000    0.0000 C   0  0  0  0  0  0  0  0  0  0  0  0
    4.9904   -2.0000    0.0000 C   0  0  0  0  0  0  0  0  0  0  0  0
    4.9904   -1.0000    0.0000 C   0  0  0  0  0  0  0  0  0  0  0  0
    5.8564   -0.5000    0.0000 C   0  0  0  0  0  0  0  0  0  0  0  0
    6.7224   -1.0000    0.0000 C   0  0  0  0  0  0  0  0  0  0  0  0
    6.7224   -2.0000    0.0000 C   0  0  0  0  0  0  0  0  0  0  0  0
    6.6654   -4.0878    0.0000 C   0  0  0  0  0  0  0  0  0  0  0  0
    7.6165   -3.7788    0.0000 C   0  0  0  0  0  0  0  0  0  0  0  0
    7.8244   -2.8006    0.0000 C   0  0  0  0  0  0  0  0  0  0  0  0
    8.7754   -2.4916    0.0000 C   0  0  0  0  0  0  0  0  0  0  0  0
    9.5186   -3.1607    0.0000 C   0  0  0  0  0  0  0  0  0  0  0  0
   10.4696   -2.8517    0.0000 F   0  0  0  0  0  0  0  0  0  0  0  0
    9.3107   -4.1389    0.0000 C   0  0  0  0  0  0  0  0  0  0  0  0
    8.3596   -4.4479    0.0000 C   0  0  0  0  0  0  0  0  0  0  0  0
    6.3564   -5.0388    0.0000 N   0  0  0  0  0  0  0  0  0  0  0  0
    6.9442   -5.8479    0.0000 C   0  0  0  0  0  0  0  0  0  0  0  0
    7.9387   -5.7433    0.0000 C   0  0  0  0  0  0  0  0  0  0  0  0
    8.5265   -6.5523    0.0000 C   0  0  1  0  0  0  0  0  0  0  0  0
    9.4400   -6.9591    0.0000 H   0  0  0  0  0  0  0  0  0  0  0  0
    9.3355   -5.9646    0.0000 O   0  0  0  0  0  0  0  0  0  0  0  0
    8.1197   -7.4659    0.0000 C   0  0  0  0  0  0  0  0  0  0  0  0
    8.7075   -8.2749    0.0000 C   0  0  1  0  0  0  0  0  0  0  0  0
    9.6211   -8.6816    0.0000 H   0  0  0  0  0  0  0  0  0  0  0  0
    9.5165   -7.6871    0.0000 O   0  0  0  0  0  0  0  0  0  0  0  0
    8.3008   -9.1885    0.0000 C   0  0  0  0  0  0  0  0  0  0  0  0
    8.8886   -9.9975    0.0000 C   0  0  0  0  0  0  0  0  0  0  0  0
    8.4818  -10.9110    0.0000 O   0  0  0  0  0  0  0  0  0  0  0  0
    9.8831   -9.8929    0.0000 O   0  0  0  0  0  0  0  0  0  0  0  0
  2  3  1  0  0  0  0
  3  4  1  0  0  0  0
  3  5  1  0  0  0  0
  5 31  1  0  0  0  0
  5  6  2  0  0  0  0
  6  7  1  0  0  0  0
  6 16  1  0  0  0  0
  7  8  2  0  0  0  0
  7  9  1  0  0  0  0
  9 10  1  0  0  0  0
 10 15  1  0  0  0  0
 10 11  2  0  0  0  0
 11 12  1  0  0  0  0
 12 13  2  0  0  0  0
 13 14  1  0  0  0  0
 14 15  2  0  0  0  0
 16 17  1  0  0  0  0
 16 23  2  0  0  0  0
 17 22  1  0  0  0  0
 17 18  2  0  0  0  0
 18 19  1  0  0  0  0
 19 20  2  0  0  0  0
 20 21  1  0  0  0  0
 21 22  2  0  0  0  0
 23 24  1  0  0  0  0
 23 31  1  0  0  0  0
 24 30  1  0  0  0  0
 24 25  2  0  0  0  0
 25 26  1  0  0  0  0
 26 27  2  0  0  0  0
 27 28  1  0  0  0  0
 27 29  1  0  0  0  0
 29 30  2  0  0  0  0
 31 32  1  0  0  0  0
 32 33  1  0  0  0  0
 33 34  1  0  0  0  0
 34 35  1  6  0  0  0
 34 36  1  0  0  0  0
 34 37  1  0  0  0  0
 37 38  1  0  0  0  0
 38 39  1  6  0  0  0
 38 40  1  0  0  0  0
 38 41  1  0  0  0  0
 41 42  1  0  0  0  0
 42 43  1  0  0  0  0
 42 44  2  0  0  0  0
M  END
>  <Supplier>
www.ambinter.com

>  <Ambinter_reference>
Amb35791101

>  <MW>
598.718

$$$$
Amb35792138
 OpenBabel08272101522D

 50 52  0  0  1  0  0  0  0  0999 V2000
    2.5718   -4.6076    0.0000 Ca  0  2  0  0  0 15  0  0  0  0  0  0
    5.4144  -11.1420    0.0000 H   0  0  0  0  0  0  0  0  0  0  0  0
    5.6184  -10.1823    0.0000 C   0  0  0  0  0  0  0  0  0  0  0  0
    4.8893   -9.5258    0.0000 C   0  0  0  0  0  0  0  0  0  0  0  0
    3.9562   -9.8290    0.0000 H   0  0  0  0  0  0  0  0  0  0  0  0
    5.0933   -8.5661    0.0000 C   0  0  0  0  0  0  0  0  0  0  0  0
    4.3641   -7.9096    0.0000 H   0  0  0  0  0  0  0  0  0  0  0  0
    6.0264   -8.2629    0.0000 C   0  0  0  0  0  0  0  0  0  0  0  0
    6.4344   -6.3435    0.0000 C   0  0  0  0  0  0  0  0  0  0  0  0
    5.7778   -5.6144    0.0000 C   0  0  0  0  0  0  0  0  0  0  0  0
    6.2684   -4.7647    0.0000 C   0  0  0  0  0  0  0  0  0  0  0  0
    5.8694   -3.8684    0.0000 C   0  0  0  0  0  0  0  0  0  0  0  0
    6.4460   -3.0746    0.0000 C   0  0  0  0  0  0  0  0  0  0  0  0
    4.8936   -3.7658    0.0000 C   0  0  0  0  0  0  0  0  0  0  0  0
    7.2281   -4.9687    0.0000 N   0  0  0  0  0  0  0  0  0  0  0  0
    7.9572   -4.3122    0.0000 C   0  0  0  0  0  0  0  0  0  0  0  0
    7.7532   -3.3525    0.0000 C   0  0  0  0  0  0  0  0  0  0  0  0
    8.4824   -2.6960    0.0000 C   0  0  1  0  0  0  0  0  0  0  0  0
    9.4421   -2.4920    0.0000 H   0  0  0  0  0  0  0  0  0  0  0  0
    9.1389   -3.4251    0.0000 O   0  0  0  0  0  0  0  0  0  0  0  0
    8.2784   -1.7363    0.0000 C   0  0  0  0  0  0  0  0  0  0  0  0
    7.3453   -1.4331    0.0000 C   0  0  1  0  0  0  0  0  0  0  0  0
    6.6888   -0.7040    0.0000 H   0  0  0  0  0  0  0  0  0  0  0  0
    7.6485   -0.5000    0.0000 O   0  0  0  0  0  0  0  0  0  0  0  0
    6.6161   -2.0896    0.0000 C   0  0  0  0  0  0  0  0  0  0  0  0
    5.6830   -1.7864    0.0000 C   0  0  0  0  0  0  0  0  0  0  0  0
    4.9539   -2.4429    0.0000 O   0  5  0  0  0  0  0  0  0  0  0  0
    5.4790   -0.8267    0.0000 O   0  0  0  0  0  0  0  0  0  0  0  0
    7.3307   -5.9445    0.0000 C   0  0  0  0  0  0  0  0  0  0  0  0
    8.1803   -6.4350    0.0000 C   0  0  0  0  0  0  0  0  0  0  0  0
    9.0300   -5.9445    0.0000 C   0  0  0  0  0  0  0  0  0  0  0  0
    9.8797   -6.4350    0.0000 C   0  0  0  0  0  0  0  0  0  0  0  0
    9.8797   -7.4161    0.0000 C   0  0  0  0  0  0  0  0  0  0  0  0
   10.7294   -7.9067    0.0000 F   0  0  0  0  0  0  0  0  0  0  0  0
    9.0300   -7.9067    0.0000 C   0  0  0  0  0  0  0  0  0  0  0  0
    8.1803   -7.4161    0.0000 C   0  0  0  0  0  0  0  0  0  0  0  0
    4.8021   -5.7169    0.0000 C   0  0  0  0  0  0  0  0  0  0  0  0
    4.2254   -4.9232    0.0000 O   0  0  0  0  0  0  0  0  0  0  0  0
    4.4030   -6.6133    0.0000 N   0  0  0  0  0  0  0  0  0  0  0  0
    3.4273   -6.7158    0.0000 C   0  0  0  0  0  0  0  0  0  0  0  0
    3.0282   -7.6121    0.0000 C   0  0  0  0  0  0  0  0  0  0  0  0
    2.0525   -7.7147    0.0000 C   0  0  0  0  0  0  0  0  0  0  0  0
    1.4758   -6.9209    0.0000 C   0  0  0  0  0  0  0  0  0  0  0  0
    0.5000   -7.0235    0.0000 O   0  5  0  0  0  0  0  0  0  0  0  0
    1.8748   -6.0246    0.0000 C   0  0  0  0  0  0  0  0  0  0  0  0
    2.8506   -5.9221    0.0000 C   0  0  0  0  0  0  0  0  0  0  0  0
    6.7555   -8.9194    0.0000 C   0  0  0  0  0  0  0  0  0  0  0  0
    7.6886   -8.6162    0.0000 H   0  0  0  0  0  0  0  0  0  0  0  0
    6.5515   -9.8791    0.0000 C   0  0  0  0  0  0  0  0  0  0  0  0
    7.2806  -10.5356    0.0000 H   0  0  0  0  0  0  0  0  0  0  0  0
  2  3  1  0  0  0  0
  3 49  1  0  0  0  0
  3  4  2  0  0  0  0
  4  5  1  0  0  0  0
  4  6  1  0  0  0  0
  6  7  1  0  0  0  0
  6  8  2  0  0  0  0
  8  9  1  0  0  0  0
  8 47  1  0  0  0  0
  9 29  2  0  0  0  0
  9 10  1  0  0  0  0
 10 11  2  0  0  0  0
 10 37  1  0  0  0  0
 11 12  1  0  0  0  0
 11 15  1  0  0  0  0
 12 13  1  0  0  0  0
 12 14  1  0  0  0  0
 15 16  1  0  0  0  0
 15 29  1  0  0  0  0
 16 17  1  0  0  0  0
 17 18  1  0  0  0  0
 18 19  1  1  0  0  0
 18 20  1  0  0  0  0
 18 21  1  0  0  0  0
 21 22  1  0  0  0  0
 22 23  1  1  0  0  0
 22 24  1  0  0  0  0
 22 25  1  0  0  0  0
 25 26  1  0  0  0  0
 26 27  1  0  0  0  0
 26 28  2  0  0  0  0
 29 30  1  0  0  0  0
 30 36  1  0  0  0  0
 30 31  2  0  0  0  0
 31 32  1  0  0  0  0
 32 33  2  0  0  0  0
 33 34  1  0  0  0  0
 33 35  1  0  0  0  0
 35 36  2  0  0  0  0
 37 38  2  0  0  0  0
 37 39  1  0  0  0  0
 39 40  1  0  0  0  0
 40 46  1  0  0  0  0
 40 41  2  0  0  0  0
 41 42  1  0  0  0  0
 42 43  2  0  0  0  0
 43 44  1  0  0  0  0
 43 45  1  0  0  0  0
 45 46  2  0  0  0  0
 47 48  1  0  0  0  0
 47 49  2  0  0  0  0
 49 50  1  0  0  0  0
M  ISO  5   2   2   5   2   7   2  48   2  50   2
M  CHG  3   1   2  27  -1  44  -1
M  END
>  <Supplier>
www.ambinter.com

>  <Ambinter_reference>
Amb35792138

>  <MW>
617.732

$$$$
Amb35792139
 OpenBabel08272101522D

 46 49  0  0  1  0  0  0  0  0999 V2000
    1.1358    1.2614    0.0000 H   0  0  0  0  0  0  0  0  0  0  0  0
    0.9320    0.3028    0.0000 C   0  0  0  0  0  0  0  0  0  0  0  0
    1.6603   -0.3529    0.0000 C   0  0  0  0  0  0  0  0  0  0  0  0
    2.5924   -0.0501    0.0000 H   0  0  0  0  0  0  0  0  0  0  0  0
    1.4566   -1.3115    0.0000 C   0  0  0  0  0  0  0  0  0  0  0  0
    2.1848   -1.9672    0.0000 H   0  0  0  0  0  0  0  0  0  0  0  0
    0.5245   -1.6143    0.0000 C   0  0  0  0  0  0  0  0  0  0  0  0
    0.1170   -3.5315    0.0000 C   0  0  0  0  0  0  0  0  0  0  0  0
    0.7728   -4.2598    0.0000 C   0  0  0  0  0  0  0  0  0  0  0  0
    0.2828   -5.1085    0.0000 C   0  0  0  0  0  0  0  0  0  0  0  0
    0.6814   -6.0038    0.0000 C   0  0  0  0  0  0  0  0  0  0  0  0
    0.1053   -6.7966    0.0000 C   0  0  0  0  0  0  0  0  0  0  0  0
    1.6560   -6.1062    0.0000 C   0  0  0  0  0  0  0  0  0  0  0  0
   -0.6758   -4.9047    0.0000 N   0  0  0  0  0  0  0  0  0  0  0  0
   -1.4041   -5.5605    0.0000 C   0  0  0  0  0  0  0  0  0  0  0  0
   -2.3361   -5.2576    0.0000 C   0  0  0  0  0  0  0  0  0  0  0  0
   -3.0644   -5.9134    0.0000 C   0  0  1  0  0  0  0  0  0  0  0  0
   -3.3673   -6.8454    0.0000 H   0  0  0  0  0  0  0  0  0  0  0  0
   -2.4087   -6.6417    0.0000 O   0  0  0  0  0  0  0  0  0  0  0  0
   -3.9964   -5.6106    0.0000 C   0  0  0  0  0  0  0  0  0  0  0  0
   -4.2002   -4.6520    0.0000 C   0  0  0  0  0  0  0  0  0  0  0  0
   -5.1322   -4.3491    0.0000 C   0  0  0  0  0  0  0  0  0  0  0  0
   -5.3360   -3.3906    0.0000 C   0  0  0  0  0  0  0  0  0  0  0  0
   -4.6077   -2.7348    0.0000 O   0  0  0  0  0  0  0  0  0  0  0  0
   -6.2680   -3.0877    0.0000 O   0  0  0  0  0  0  0  0  0  0  0  0
   -0.7783   -3.9301    0.0000 C   0  0  0  0  0  0  0  0  0  0  0  0
   -1.6270   -3.4401    0.0000 C   0  0  0  0  0  0  0  0  0  0  0  0
   -2.4757   -3.9301    0.0000 C   0  0  0  0  0  0  0  0  0  0  0  0
   -3.3244   -3.4401    0.0000 C   0  0  0  0  0  0  0  0  0  0  0  0
   -3.3244   -2.4601    0.0000 C   0  0  0  0  0  0  0  0  0  0  0  0
   -4.1731   -1.9701    0.0000 F   0  0  0  0  0  0  0  0  0  0  0  0
   -2.4757   -1.9701    0.0000 C   0  0  0  0  0  0  0  0  0  0  0  0
   -1.6270   -2.4601    0.0000 C   0  0  0  0  0  0  0  0  0  0  0  0
    1.7474   -4.1573    0.0000 C   0  0  0  0  0  0  0  0  0  0  0  0
    2.3234   -4.9502    0.0000 O   0  0  0  0  0  0  0  0  0  0  0  0
    2.1460   -3.2621    0.0000 N   0  0  0  0  0  0  0  0  0  0  0  0
    3.1206   -3.1596    0.0000 C   0  0  0  0  0  0  0  0  0  0  0  0
    3.5192   -2.2644    0.0000 C   0  0  0  0  0  0  0  0  0  0  0  0
    4.4939   -2.1619    0.0000 C   0  0  0  0  0  0  0  0  0  0  0  0
    5.0699   -2.9548    0.0000 C   0  0  0  0  0  0  0  0  0  0  0  0
    4.6713   -3.8500    0.0000 C   0  0  0  0  0  0  0  0  0  0  0  0
    3.6967   -3.9525    0.0000 C   0  0  0  0  0  0  0  0  0  0  0  0
   -0.2038   -0.9586    0.0000 C   0  0  0  0  0  0  0  0  0  0  0  0
   -1.1358   -1.2614    0.0000 H   0  0  0  0  0  0  0  0  0  0  0  0
    0.0000   -0.0000    0.0000 C   0  0  0  0  0  0  0  0  0  0  0  0
   -0.7283    0.6557    0.0000 H   0  0  0  0  0  0  0  0  0  0  0  0
  1  2  1  0  0  0  0
  2 45  1  0  0  0  0
  2  3  2  0  0  0  0
  3  4  1  0  0  0  0
  3  5  1  0  0  0  0
  5  6  1  0  0  0  0
  5  7  2  0  0  0  0
  7  8  1  0  0  0  0
  7 43  1  0  0  0  0
  8 26  2  0  0  0  0
  8  9  1  0  0  0  0
  9 10  2  0  0  0  0
  9 34  1  0  0  0  0
 10 11  1  0  0  0  0
 10 14  1  0  0  0  0
 11 12  1  0  0  0  0
 11 13  1  0  0  0  0
 14 15  1  0  0  0  0
 14 26  1  0  0  0  0
 15 16  1  0  0  0  0
 16 17  1  0  0  0  0
 17 18  1  6  0  0  0
 17 19  1  0  0  0  0
 17 20  1  0  0  0  0
 20 21  1  0  0  0  0
 21 22  1  0  0  0  0
 22 23  1  0  0  0  0
 23 24  1  0  0  0  0
 23 25  2  0  0  0  0
 26 27  1  0  0  0  0
 27 33  1  0  0  0  0
 27 28  2  0  0  0  0
 28 29  1  0  0  0  0
 29 30  2  0  0  0  0
 30 31  1  0  0  0  0
 30 32  1  0  0  0  0
 32 33  2  0  0  0  0
 34 35  2  0  0  0  0
 34 36  1  0  0  0  0
 36 37  1  0  0  0  0
 37 42  1  0  0  0  0
 37 38  2  0  0  0  0
 38 39  1  0  0  0  0
 39 40  2  0  0  0  0
 40 41  1  0  0  0  0
 41 42  2  0  0  0  0
 43 44  1  0  0  0  0
 43 45  2  0  0  0  0
 45 46  1  0  0  0  0
M  ISO  5   1   2   4   2   6   2  44   2  46   2
M  END
>  <Supplier>
www.ambinter.com

>  <Ambinter_reference>
Amb35792139

>  <MW>
547.671

$$$$
Amb35792140
 OpenBabel08272101522D

 50 53  0  0  1  0  0  0  0  0999 V2000
    1.1375    1.2633    0.0000 H   0  0  0  0  0  0  0  0  0  0  0  0
    0.9334    0.3033    0.0000 C   0  0  0  0  0  0  0  0  0  0  0  0
    1.6628   -0.3534    0.0000 C   0  0  0  0  0  0  0  0  0  0  0  0
    2.5963   -0.0502    0.0000 H   0  0  0  0  0  0  0  0  0  0  0  0
    1.4588   -1.3135    0.0000 C   0  0  0  0  0  0  0  0  0  0  0  0
    2.1881   -1.9702    0.0000 H   0  0  0  0  0  0  0  0  0  0  0  0
    0.5253   -1.6168    0.0000 C   0  0  0  0  0  0  0  0  0  0  0  0
    0.1172   -3.5368    0.0000 C   0  0  0  0  0  0  0  0  0  0  0  0
    0.7739   -4.2662    0.0000 C   0  0  0  0  0  0  0  0  0  0  0  0
    0.2832   -5.1162    0.0000 C   0  0  0  0  0  0  0  0  0  0  0  0
    0.6824   -6.0128    0.0000 C   0  0  0  0  0  0  0  0  0  0  0  0
    0.1055   -6.8069    0.0000 C   0  0  0  0  0  0  0  0  0  0  0  0
    1.6585   -6.1154    0.0000 C   0  0  0  0  0  0  0  0  0  0  0  0
   -0.6768   -4.9121    0.0000 N   0  0  0  0  0  0  0  0  0  0  0  0
   -1.4062   -5.5689    0.0000 C   0  0  0  0  0  0  0  0  0  0  0  0
   -2.3397   -5.2656    0.0000 C   0  0  0  0  0  0  0  0  0  0  0  0
   -3.0690   -5.9223    0.0000 C   0  0  3  0  0  0  0  0  0  0  0  0
   -4.0025   -5.6190    0.0000 O   0  0  0  0  0  0  0  0  0  0  0  0
   -2.8650   -6.8824    0.0000 C   0  0  0  0  0  0  0  0  0  0  0  0
   -3.5944   -7.5391    0.0000 C   0  0  3  0  0  0  0  0  0  0  0  0
   -4.5278   -7.2358    0.0000 O   0  0  0  0  0  0  0  0  0  0  0  0
   -3.3903   -8.4991    0.0000 C   0  0  0  0  0  0  0  0  0  0  0  0
   -4.1197   -9.1559    0.0000 C   0  0  0  0  0  0  0  0  0  0  0  0
   -5.0531   -8.8526    0.0000 O   0  0  0  0  0  0  0  0  0  0  0  0
   -3.9156  -10.1159    0.0000 O   0  0  0  0  0  0  0  0  0  0  0  0
   -4.6450  -10.7727    0.0000 C   0  0  0  0  0  0  0  0  0  0  0  0
   -4.9483  -11.7061    0.0000 C   0  0  0  0  0  0  0  0  0  0  0  0
   -3.9883  -11.5020    0.0000 C   0  0  0  0  0  0  0  0  0  0  0  0
   -5.5785  -10.4694    0.0000 C   0  0  0  0  0  0  0  0  0  0  0  0
   -0.7794   -3.9360    0.0000 C   0  0  0  0  0  0  0  0  0  0  0  0
   -1.6294   -3.4453    0.0000 C   0  0  0  0  0  0  0  0  0  0  0  0
   -2.4794   -3.9360    0.0000 C   0  0  0  0  0  0  0  0  0  0  0  0
   -3.3294   -3.4453    0.0000 C   0  0  0  0  0  0  0  0  0  0  0  0
   -3.3294   -2.4638    0.0000 C   0  0  0  0  0  0  0  0  0  0  0  0
   -4.1794   -1.9731    0.0000 F   0  0  0  0  0  0  0  0  0  0  0  0
   -2.4794   -1.9731    0.0000 C   0  0  0  0  0  0  0  0  0  0  0  0
   -1.6294   -2.4638    0.0000 C   0  0  0  0  0  0  0  0  0  0  0  0
    1.7500   -4.1636    0.0000 C   0  0  0  0  0  0  0  0  0  0  0  0
    2.3269   -4.9577    0.0000 O   0  0  0  0  0  0  0  0  0  0  0  0
    2.1492   -3.2670    0.0000 N   0  0  0  0  0  0  0  0  0  0  0  0
    3.1254   -3.1644    0.0000 C   0  0  0  0  0  0  0  0  0  0  0  0
    3.5246   -2.2678    0.0000 C   0  0  0  0  0  0  0  0  0  0  0  0
    4.5007   -2.1652    0.0000 C   0  0  0  0  0  0  0  0  0  0  0  0
    5.0776   -2.9592    0.0000 C   0  0  0  0  0  0  0  0  0  0  0  0
    4.6784   -3.8559    0.0000 C   0  0  0  0  0  0  0  0  0  0  0  0
    3.7023   -3.9584    0.0000 C   0  0  0  0  0  0  0  0  0  0  0  0
   -0.2041   -0.9600    0.0000 C   0  0  0  0  0  0  0  0  0  0  0  0
   -1.1375   -1.2633    0.0000 H   0  0  0  0  0  0  0  0  0  0  0  0
    0.0000   -0.0000    0.0000 C   0  0  0  0  0  0  0  0  0  0  0  0
   -0.7294    0.6567    0.0000 H   0  0  0  0  0  0  0  0  0  0  0  0
  1  2  1  0  0  0  0
  2 49  1  0  0  0  0
  2  3  2  0  0  0  0
  3  4  1  0  0  0  0
  3  5  1  0  0  0  0
  5  6  1  0  0  0  0
  5  7  2  0  0  0  0
  7  8  1  0  0  0  0
  7 47  1  0  0  0  0
  8 30  2  0  0  0  0
  8  9  1  0  0  0  0
  9 10  2  0  0  0  0
  9 38  1  0  0  0  0
 10 11  1  0  0  0  0
 10 14  1  0  0  0  0
 11 12  1  0  0  0  0
 11 13  1  0  0  0  0
 14 15  1  0  0  0  0
 14 30  1  0  0  0  0
 15 16  1  0  0  0  0
 16 17  1  0  0  0  0
 17 18  1  0  0  0  0
 17 19  1  0  0  0  0
 19 20  1  0  0  0  0
 20 21  1  0  0  0  0
 20 22  1  0  0  0  0
 22 23  1  0  0  0  0
 23 24  2  0  0  0  0
 23 25  1  0  0  0  0
 25 26  1  0  0  0  0
 26 27  1  0  0  0  0
 26 28  1  0  0  0  0
 26 29  1  0  0  0  0
 30 31  1  0  0  0  0
 31 37  1  0  0  0  0
 31 32  2  0  0  0  0
 32 33  1  0  0  0  0
 33 34  2  0  0  0  0
 34 35  1  0  0  0  0
 34 36  1  0  0  0  0
 36 37  2  0  0  0  0
 38 39  2  0  0  0  0
 38 40  1  0  0  0  0
 40 41  1  0  0  0  0
 41 46  1  0  0  0  0
 41 42  2  0  0  0  0
 42 43  1  0  0  0  0
 43 44  2  0  0  0  0
 44 45  1  0  0  0  0
 45 46  2  0  0  0  0
 47 48  1  0  0  0  0
 47 49  2  0  0  0  0
 49 50  1  0  0  0  0
M  ISO  5   1   2   4   2   6   2  48   2  50   2
M  END
>  <Supplier>
www.ambinter.com

>  <Ambinter_reference>
Amb35792140

>  <MW>
619.777

$$$$
Amb35792142
 OpenBabel08272101522D

 49 51  0  0  1  0  0  0  0  0999 V2000
    1.4022   -4.2826    0.0000 Na  0  3  0  0  0 15  0  0  0  0  0  0
    8.8470   -2.4916    0.0000 H   0  0  0  0  0  0  0  0  0  0  0  0
    9.5902   -3.1607    0.0000 C   0  0  0  0  0  0  0  0  0  0  0  0
    9.3822   -4.1389    0.0000 C   0  0  0  0  0  0  0  0  0  0  0  0
    8.4312   -4.4479    0.0000 N   0  0  0  0  0  0  0  0  0  0  0  0
    7.6880   -3.7788    0.0000 C   0  0  0  0  0  0  0  0  0  0  0  0
    7.8960   -2.8006    0.0000 O   0  0  0  0  0  0  0  0  0  0  0  0
    6.7370   -4.0878    0.0000 C   0  0  0  0  0  0  0  0  0  0  0  0
    6.4280   -5.0388    0.0000 C   0  0  0  0  0  0  0  0  0  0  0  0
    7.0158   -5.8479    0.0000 C   0  0  0  0  0  0  0  0  0  0  0  0
    6.6090   -6.7614    0.0000 C   0  0  0  0  0  0  0  0  0  0  0  0
    8.0103   -5.7433    0.0000 C   0  0  0  0  0  0  0  0  0  0  0  0
    5.4280   -5.0388    0.0000 N   0  0  0  0  0  0  0  0  0  0  0  0
    4.8402   -5.8479    0.0000 C   0  0  0  0  0  0  0  0  0  0  0  0
    5.2469   -6.7614    0.0000 C   0  0  0  0  0  0  0  0  0  0  0  0
    4.6591   -7.5704    0.0000 C   0  0  1  0  0  0  0  0  0  0  0  0
    4.5546   -8.5649    0.0000 H   0  0  0  0  0  0  0  0  0  0  0  0
    5.4682   -8.1582    0.0000 O   0  0  0  0  0  0  0  0  0  0  0  0
    3.6646   -7.4659    0.0000 C   0  0  0  0  0  0  0  0  0  0  0  0
    3.0768   -8.2749    0.0000 C   0  0  1  0  0  0  0  0  0  0  0  0
    2.9723   -9.2694    0.0000 H   0  0  0  0  0  0  0  0  0  0  0  0
    3.8858   -8.8627    0.0000 O   0  0  0  0  0  0  0  0  0  0  0  0
    2.0823   -8.1704    0.0000 C   0  0  0  0  0  0  0  0  0  0  0  0
    1.4945   -8.9794    0.0000 C   0  0  0  0  0  0  0  0  0  0  0  0
    0.5000   -8.8749    0.0000 O   0  5  0  0  0  0  0  0  0  0  0  0
    1.9013   -9.8929    0.0000 O   0  0  0  0  0  0  0  0  0  0  0  0
    5.1190   -4.0878    0.0000 C   0  0  0  0  0  0  0  0  0  0  0  0
    5.9280   -3.5000    0.0000 C   0  0  0  0  0  0  0  0  0  0  0  0
    5.9280   -2.5000    0.0000 C   0  0  0  0  0  0  0  0  0  0  0  0
    5.0619   -2.0000    0.0000 C   0  0  0  0  0  0  0  0  0  0  0  0
    5.0619   -1.0000    0.0000 C   0  0  0  0  0  0  0  0  0  0  0  0
    5.9280   -0.5000    0.0000 C   0  0  0  0  0  0  0  0  0  0  0  0
    6.7940   -1.0000    0.0000 C   0  0  0  0  0  0  0  0  0  0  0  0
    6.7940   -2.0000    0.0000 C   0  0  0  0  0  0  0  0  0  0  0  0
    4.1679   -3.7788    0.0000 C   0  0  0  0  0  0  0  0  0  0  0  0
    3.4248   -4.4479    0.0000 C   0  0  0  0  0  0  0  0  0  0  0  0
    2.4737   -4.1389    0.0000 C   0  0  0  0  0  0  0  0  0  0  0  0
    2.2658   -3.1607    0.0000 C   0  0  0  0  0  0  0  0  0  0  0  0
    1.3147   -2.8517    0.0000 F   0  0  0  0  0  0  0  0  0  0  0  0
    3.0089   -2.4916    0.0000 C   0  0  0  0  0  0  0  0  0  0  0  0
    3.9600   -2.8006    0.0000 C   0  0  0  0  0  0  0  0  0  0  0  0
   10.1254   -4.8080    0.0000 C   0  0  0  0  0  0  0  0  0  0  0  0
    9.9175   -5.7862    0.0000 H   0  0  0  0  0  0  0  0  0  0  0  0
   11.0764   -4.4990    0.0000 C   0  0  0  0  0  0  0  0  0  0  0  0
   11.8196   -5.1681    0.0000 H   0  0  0  0  0  0  0  0  0  0  0  0
   11.2844   -3.5208    0.0000 C   0  0  0  0  0  0  0  0  0  0  0  0
   12.2354   -3.2118    0.0000 H   0  0  0  0  0  0  0  0  0  0  0  0
   10.5412   -2.8517    0.0000 C   0  0  0  0  0  0  0  0  0  0  0  0
   10.7491   -1.8736    0.0000 H   0  0  0  0  0  0  0  0  0  0  0  0
  2  3  1  0  0  0  0
  3 48  1  0  0  0  0
  3  4  2  0  0  0  0
  4  5  1  0  0  0  0
  4 42  1  0  0  0  0
  5  6  1  0  0  0  0
  6  7  2  0  0  0  0
  6  8  1  0  0  0  0
  8 28  1  0  0  0  0
  8  9  2  0  0  0  0
  9 10  1  0  0  0  0
  9 13  1  0  0  0  0
 10 11  1  0  0  0  0
 10 12  1  0  0  0  0
 13 14  1  0  0  0  0
 13 27  1  0  0  0  0
 14 15  1  0  0  0  0
 15 16  1  0  0  0  0
 16 17  1  6  0  0  0
 16 18  1  0  0  0  0
 16 19  1  0  0  0  0
 19 20  1  0  0  0  0
 20 21  1  6  0  0  0
 20 22  1  0  0  0  0
 20 23  1  0  0  0  0
 23 24  1  0  0  0  0
 24 25  1  0  0  0  0
 24 26  2  0  0  0  0
 27 28  2  0  0  0  0
 27 35  1  0  0  0  0
 28 29  1  0  0  0  0
 29 34  1  0  0  0  0
 29 30  2  0  0  0  0
 30 31  1  0  0  0  0
 31 32  2  0  0  0  0
 32 33  1  0  0  0  0
 33 34  2  0  0  0  0
 35 41  1  0  0  0  0
 35 36  2  0  0  0  0
 36 37  1  0  0  0  0
 37 38  2  0  0  0  0
 38 39  1  0  0  0  0
 38 40  1  0  0  0  0
 40 41  2  0  0  0  0
 42 43  1  0  0  0  0
 42 44  2  0  0  0  0
 44 45  1  0  0  0  0
 44 46  1  0  0  0  0
 46 47  1  0  0  0  0
 46 48  2  0  0  0  0
 48 49  1  0  0  0  0
M  ISO  5   2   2  43   2  45   2  47   2  49   2
M  CHG  2   1   1  25  -1
M  END
>  <Supplier>
www.ambinter.com

>  <Ambinter_reference>
Amb35792142

>  <MW>
585.652

$$$$
Amb35792143
 OpenBabel08272101522D

 43 45  0  0  1  0  0  0  0  0999 V2000
   -2.5353    0.3175    0.0000 Ca  0  2  0  0  0 15  0  0  0  0  0  0
    4.7251   -5.7433    0.0000 C   0  0  0  0  0  0  0  0  0  0  0  0
    5.7197   -5.8479    0.0000 C   0  0  0  0  0  0  0  0  0  0  0  0
    6.1264   -6.7614    0.0000 C   0  0  0  0  0  0  0  0  0  0  0  0
    6.3074   -5.0388    0.0000 C   0  0  0  0  0  0  0  0  0  0  0  0
    5.9984   -4.0878    0.0000 C   0  0  0  0  0  0  0  0  0  0  0  0
    5.0474   -3.7788    0.0000 C   0  0  0  0  0  0  0  0  0  0  0  0
    4.8395   -2.8006    0.0000 O   0  0  0  0  0  0  0  0  0  0  0  0
    4.3042   -4.4479    0.0000 N   0  0  0  0  0  0  0  0  0  0  0  0
    3.3532   -4.1389    0.0000 C   0  0  0  0  0  0  0  0  0  0  0  0
    2.6100   -4.8080    0.0000 C   0  0  0  0  0  0  0  0  0  0  0  0
    1.6590   -4.4990    0.0000 C   0  0  0  0  0  0  0  0  0  0  0  0
    1.4511   -3.5208    0.0000 C   0  0  0  0  0  0  0  0  0  0  0  0
    0.5000   -3.2118    0.0000 F   0  0  0  0  0  0  0  0  0  0  0  0
    2.1942   -2.8517    0.0000 C   0  0  0  0  0  0  0  0  0  0  0  0
    3.1453   -3.1607    0.0000 C   0  0  0  0  0  0  0  0  0  0  0  0
    6.8074   -3.5000    0.0000 C   0  0  0  0  0  0  0  0  0  0  0  0
    6.8074   -2.5000    0.0000 C   0  0  0  0  0  0  0  0  0  0  0  0
    5.9414   -2.0000    0.0000 C   0  0  0  0  0  0  0  0  0  0  0  0
    5.9414   -1.0000    0.0000 C   0  0  0  0  0  0  0  0  0  0  0  0
    6.8074   -0.5000    0.0000 C   0  0  0  0  0  0  0  0  0  0  0  0
    7.6735   -1.0000    0.0000 C   0  0  0  0  0  0  0  0  0  0  0  0
    7.6735   -2.0000    0.0000 C   0  0  0  0  0  0  0  0  0  0  0  0
    7.6165   -4.0878    0.0000 C   0  0  0  0  0  0  0  0  0  0  0  0
    8.5675   -3.7788    0.0000 C   0  0  0  0  0  0  0  0  0  0  0  0
    8.7754   -2.8006    0.0000 C   0  0  0  0  0  0  0  0  0  0  0  0
    9.7265   -2.4916    0.0000 C   0  0  0  0  0  0  0  0  0  0  0  0
   10.4696   -3.1607    0.0000 C   0  0  0  0  0  0  0  0  0  0  0  0
   11.4207   -2.8517    0.0000 F   0  0  0  0  0  0  0  0  0  0  0  0
   10.2617   -4.1389    0.0000 C   0  0  0  0  0  0  0  0  0  0  0  0
    9.3107   -4.4479    0.0000 C   0  0  0  0  0  0  0  0  0  0  0  0
    7.3074   -5.0388    0.0000 N   0  0  0  0  0  0  0  0  0  0  0  0
    7.8952   -5.8479    0.0000 C   0  0  0  0  0  0  0  0  0  0  0  0
    8.8898   -5.7433    0.0000 C   0  0  0  0  0  0  0  0  0  0  0  0
    9.4775   -6.5523    0.0000 C   0  0  3  0  0  0  0  0  0  0  0  0
    9.0708   -7.4659    0.0000 O   0  0  0  0  0  0  0  0  0  0  0  0
   10.4721   -6.4478    0.0000 C   0  0  0  0  0  0  0  0  0  0  0  0
   11.0598   -7.2568    0.0000 C   0  0  3  0  0  0  0  0  0  0  0  0
   10.6531   -8.1704    0.0000 O   0  0  0  0  0  0  0  0  0  0  0  0
   12.0544   -7.1523    0.0000 C   0  0  0  0  0  0  0  0  0  0  0  0
   12.6422   -7.9613    0.0000 C   0  0  0  0  0  0  0  0  0  0  0  0
   12.2354   -8.8749    0.0000 O   0  5  0  0  0  0  0  0  0  0  0  0
   13.6367   -7.8568    0.0000 O   0  0  0  0  0  0  0  0  0  0  0  0
  2  3  1  0  0  0  0
  3  4  1  0  0  0  0
  3  5  1  0  0  0  0
  5 32  1  0  0  0  0
  5  6  2  0  0  0  0
  6  7  1  0  0  0  0
  6 17  1  0  0  0  0
  7  8  2  0  0  0  0
  7  9  1  0  0  0  0
  9 10  1  0  0  0  0
 10 16  1  0  0  0  0
 10 11  2  0  0  0  0
 11 12  1  0  0  0  0
 12 13  2  0  0  0  0
 13 14  1  0  0  0  0
 13 15  1  0  0  0  0
 15 16  2  0  0  0  0
 17 18  1  0  0  0  0
 17 24  2  0  0  0  0
 18 23  1  0  0  0  0
 18 19  2  0  0  0  0
 19 20  1  0  0  0  0
 20 21  2  0  0  0  0
 21 22  1  0  0  0  0
 22 23  2  0  0  0  0
 24 25  1  0  0  0  0
 24 32  1  0  0  0  0
 25 31  1  0  0  0  0
 25 26  2  0  0  0  0
 26 27  1  0  0  0  0
 27 28  2  0  0  0  0
 28 29  1  0  0  0  0
 28 30  1  0  0  0  0
 30 31  2  0  0  0  0
 32 33  1  0  0  0  0
 33 34  1  0  0  0  0
 34 35  1  0  0  0  0
 35 36  1  0  0  0  0
 35 37  1  0  0  0  0
 37 38  1  0  0  0  0
 38 39  1  0  0  0  0
 38 40  1  0  0  0  0
 40 41  1  0  0  0  0
 41 42  1  0  0  0  0
 41 43  2  0  0  0  0
M  CHG  2   1   2  42  -1
M  END
>  <Supplier>
www.ambinter.com

>  <Ambinter_reference>
Amb35792143

>  <MW>
615.7

$$$$
Amb35792144
 OpenBabel08272101522D

 42 44  0  0  1  0  0  0  0  0999 V2000
   -2.2886    0.1842    0.0000 Na  0  3  0  0  0 15  0  0  0  0  0  0
    3.7741   -5.7433    0.0000 C   0  0  0  0  0  0  0  0  0  0  0  0
    4.7686   -5.8479    0.0000 C   0  0  0  0  0  0  0  0  0  0  0  0
    5.1753   -6.7614    0.0000 C   0  0  0  0  0  0  0  0  0  0  0  0
    5.3564   -5.0388    0.0000 C   0  0  0  0  0  0  0  0  0  0  0  0
    5.0474   -4.0878    0.0000 C   0  0  0  0  0  0  0  0  0  0  0  0
    4.0963   -3.7788    0.0000 C   0  0  0  0  0  0  0  0  0  0  0  0
    3.8884   -2.8006    0.0000 O   0  0  0  0  0  0  0  0  0  0  0  0
    3.3532   -4.4479    0.0000 N   0  0  0  0  0  0  0  0  0  0  0  0
    2.4021   -4.1389    0.0000 C   0  0  0  0  0  0  0  0  0  0  0  0
    1.6590   -4.8080    0.0000 C   0  0  0  0  0  0  0  0  0  0  0  0
    0.7079   -4.4990    0.0000 C   0  0  0  0  0  0  0  0  0  0  0  0
    0.5000   -3.5208    0.0000 C   0  0  0  0  0  0  0  0  0  0  0  0
    1.2431   -2.8517    0.0000 C   0  0  0  0  0  0  0  0  0  0  0  0
    2.1942   -3.1607    0.0000 C   0  0  0  0  0  0  0  0  0  0  0  0
    5.8564   -3.5000    0.0000 C   0  0  0  0  0  0  0  0  0  0  0  0
    5.8564   -2.5000    0.0000 C   0  0  0  0  0  0  0  0  0  0  0  0
    4.9904   -2.0000    0.0000 C   0  0  0  0  0  0  0  0  0  0  0  0
    4.9904   -1.0000    0.0000 C   0  0  0  0  0  0  0  0  0  0  0  0
    5.8564   -0.5000    0.0000 C   0  0  0  0  0  0  0  0  0  0  0  0
    6.7224   -1.0000    0.0000 C   0  0  0  0  0  0  0  0  0  0  0  0
    6.7224   -2.0000    0.0000 C   0  0  0  0  0  0  0  0  0  0  0  0
    6.6654   -4.0878    0.0000 C   0  0  0  0  0  0  0  0  0  0  0  0
    7.6165   -3.7788    0.0000 C   0  0  0  0  0  0  0  0  0  0  0  0
    7.8244   -2.8006    0.0000 C   0  0  0  0  0  0  0  0  0  0  0  0
    8.7754   -2.4916    0.0000 C   0  0  0  0  0  0  0  0  0  0  0  0
    9.5186   -3.1607    0.0000 C   0  0  0  0  0  0  0  0  0  0  0  0
   10.4696   -2.8517    0.0000 F   0  0  0  0  0  0  0  0  0  0  0  0
    9.3107   -4.1389    0.0000 C   0  0  0  0  0  0  0  0  0  0  0  0
    8.3596   -4.4479    0.0000 C   0  0  0  0  0  0  0  0  0  0  0  0
    6.3564   -5.0388    0.0000 N   0  0  0  0  0  0  0  0  0  0  0  0
    6.9442   -5.8479    0.0000 C   0  0  0  0  0  0  0  0  0  0  0  0
    7.9387   -5.7433    0.0000 C   0  0  0  0  0  0  0  0  0  0  0  0
    8.5265   -6.5523    0.0000 C   0  0  1  0  0  0  0  0  0  0  0  0
    9.4400   -6.9591    0.0000 H   0  0  0  0  0  0  0  0  0  0  0  0
    9.3355   -5.9646    0.0000 O   0  0  0  0  0  0  0  0  0  0  0  0
    8.1197   -7.4659    0.0000 C   0  0  0  0  0  0  0  0  0  0  0  0
    8.7075   -8.2749    0.0000 C   0  0  0  0  0  0  0  0  0  0  0  0
    8.3008   -9.1885    0.0000 C   0  0  0  0  0  0  0  0  0  0  0  0
    8.8886   -9.9975    0.0000 C   0  0  0  0  0  0  0  0  0  0  0  0
    8.4818  -10.9110    0.0000 O   0  5  0  0  0  0  0  0  0  0  0  0
    9.8831   -9.8929    0.0000 O   0  0  0  0  0  0  0  0  0  0  0  0
  2  3  1  0  0  0  0
  3  4  1  0  0  0  0
  3  5  1  0  0  0  0
  5 31  1  0  0  0  0
  5  6  2  0  0  0  0
  6  7  1  0  0  0  0
  6 16  1  0  0  0  0
  7  8  2  0  0  0  0
  7  9  1  0  0  0  0
  9 10  1  0  0  0  0
 10 15  1  0  0  0  0
 10 11  2  0  0  0  0
 11 12  1  0  0  0  0
 12 13  2  0  0  0  0
 13 14  1  0  0  0  0
 14 15  2  0  0  0  0
 16 17  1  0  0  0  0
 16 23  2  0  0  0  0
 17 22  1  0  0  0  0
 17 18  2  0  0  0  0
 18 19  1  0  0  0  0
 19 20  2  0  0  0  0
 20 21  1  0  0  0  0
 21 22  2  0  0  0  0
 23 24  1  0  0  0  0
 23 31  1  0  0  0  0
 24 30  1  0  0  0  0
 24 25  2  0  0  0  0
 25 26  1  0  0  0  0
 26 27  2  0  0  0  0
 27 28  1  0  0  0  0
 27 29  1  0  0  0  0
 29 30  2  0  0  0  0
 31 32  1  0  0  0  0
 32 33  1  0  0  0  0
 33 34  1  0  0  0  0
 34 35  1  6  0  0  0
 34 36  1  0  0  0  0
 34 37  1  0  0  0  0
 37 38  1  0  0  0  0
 38 39  2  0  0  0  0
 39 40  1  0  0  0  0
 40 41  1  0  0  0  0
 40 42  2  0  0  0  0
M  CHG  2   1   1  41  -1
M  END
>  <Supplier>
www.ambinter.com

>  <Ambinter_reference>
Amb35792144

>  <MW>
562.606

$$$$
Amb35792145
 OpenBabel08272101522D

 41 44  0  0  1  0  0  0  0  0999 V2000
   -2.5823   -0.7045    0.0000 C   0  0  0  0  0  0  0  0  0  0  0  0
   -1.5878   -0.8090    0.0000 C   0  0  0  0  0  0  0  0  0  0  0  0
   -1.1810   -1.7226    0.0000 C   0  0  0  0  0  0  0  0  0  0  0  0
   -1.0000    0.0000    0.0000 C   0  0  0  0  0  0  0  0  0  0  0  0
   -1.3090    0.9511    0.0000 C   0  0  0  0  0  0  0  0  0  0  0  0
   -2.2601    1.2601    0.0000 C   0  0  0  0  0  0  0  0  0  0  0  0
   -2.4680    2.2382    0.0000 O   0  0  0  0  0  0  0  0  0  0  0  0
   -3.0032    0.5909    0.0000 N   0  0  0  0  0  0  0  0  0  0  0  0
   -3.9543    0.9000    0.0000 C   0  0  0  0  0  0  0  0  0  0  0  0
   -4.6974    0.2308    0.0000 C   0  0  0  0  0  0  0  0  0  0  0  0
   -5.6485    0.5398    0.0000 C   0  0  0  0  0  0  0  0  0  0  0  0
   -5.8564    1.5180    0.0000 C   0  0  0  0  0  0  0  0  0  0  0  0
   -5.1132    2.1871    0.0000 C   0  0  0  0  0  0  0  0  0  0  0  0
   -4.1622    1.8781    0.0000 C   0  0  0  0  0  0  0  0  0  0  0  0
   -0.5000    1.5388    0.0000 C   0  0  0  0  0  0  0  0  0  0  0  0
   -0.5000    2.5388    0.0000 C   0  0  0  0  0  0  0  0  0  0  0  0
   -1.3660    3.0388    0.0000 C   0  0  0  0  0  0  0  0  0  0  0  0
   -1.3660    4.0388    0.0000 C   0  0  0  0  0  0  0  0  0  0  0  0
   -0.5000    4.5388    0.0000 C   0  0  0  0  0  0  0  0  0  0  0  0
    0.3660    4.0388    0.0000 C   0  0  0  0  0  0  0  0  0  0  0  0
    0.3660    3.0388    0.0000 C   0  0  0  0  0  0  0  0  0  0  0  0
    0.3090    0.9511    0.0000 C   0  0  0  0  0  0  0  0  0  0  0  0
    1.2601    1.2601    0.0000 C   0  0  0  0  0  0  0  0  0  0  0  0
    1.4680    2.2382    0.0000 C   0  0  0  0  0  0  0  0  0  0  0  0
    2.4190    2.5472    0.0000 C   0  0  0  0  0  0  0  0  0  0  0  0
    3.1622    1.8781    0.0000 C   0  0  0  0  0  0  0  0  0  0  0  0
    4.1132    2.1871    0.0000 F   0  0  0  0  0  0  0  0  0  0  0  0
    2.9543    0.9000    0.0000 C   0  0  0  0  0  0  0  0  0  0  0  0
    2.0032    0.5909    0.0000 C   0  0  0  0  0  0  0  0  0  0  0  0
    0.0000   -0.0000    0.0000 N   0  0  0  0  0  0  0  0  0  0  0  0
    0.5878   -0.8090    0.0000 C   0  0  0  0  0  0  0  0  0  0  0  0
    1.5823   -0.7045    0.0000 C   0  0  0  0  0  0  0  0  0  0  0  0
    2.1701   -1.5135    0.0000 C   0  0  1  0  0  0  0  0  0  0  0  0
    3.0836   -1.9202    0.0000 H   0  0  0  0  0  0  0  0  0  0  0  0
    2.9791   -0.9257    0.0000 O   0  0  0  0  0  0  0  0  0  0  0  0
    1.7634   -2.4271    0.0000 C   0  0  0  0  0  0  0  0  0  0  0  0
    2.3511   -3.2361    0.0000 C   0  0  0  0  0  0  0  0  0  0  0  0
    1.9444   -4.1496    0.0000 C   0  0  0  0  0  0  0  0  0  0  0  0
    0.9499   -4.2541    0.0000 C   0  0  0  0  0  0  0  0  0  0  0  0
    0.5431   -5.1677    0.0000 O   0  0  0  0  0  0  0  0  0  0  0  0
    0.3621   -3.4451    0.0000 O   0  0  0  0  0  0  0  0  0  0  0  0
  1  2  1  0  0  0  0
  2  3  1  0  0  0  0
  2  4  1  0  0  0  0
  4 30  1  0  0  0  0
  4  5  2  0  0  0  0
  5  6  1  0  0  0  0
  5 15  1  0  0  0  0
  6  7  2  0  0  0  0
  6  8  1  0  0  0  0
  8  9  1  0  0  0  0
  9 14  1  0  0  0  0
  9 10  2  0  0  0  0
 10 11  1  0  0  0  0
 11 12  2  0  0  0  0
 12 13  1  0  0  0  0
 13 14  2  0  0  0  0
 15 16  1  0  0  0  0
 15 22  2  0  0  0  0
 16 21  1  0  0  0  0
 16 17  2  0  0  0  0
 17 18  1  0  0  0  0
 18 19  2  0  0  0  0
 19 20  1  0  0  0  0
 20 21  2  0  0  0  0
 22 23  1  0  0  0  0
 22 30  1  0  0  0  0
 23 29  1  0  0  0  0
 23 24  2  0  0  0  0
 24 25  1  0  0  0  0
 25 26  2  0  0  0  0
 26 27  1  0  0  0  0
 26 28  1  0  0  0  0
 28 29  2  0  0  0  0
 30 31  1  0  0  0  0
 31 32  1  0  0  0  0
 32 33  1  0  0  0  0
 33 34  1  6  0  0  0
 33 35  1  0  0  0  0
 33 36  1  0  0  0  0
 36 37  1  0  0  0  0
 37 38  2  0  0  0  0
 38 39  1  0  0  0  0
 39 40  1  0  0  0  0
 39 41  2  0  0  0  0
M  END
>  <Supplier>
www.ambinter.com

>  <Ambinter_reference>
Amb35792145

>  <MW>
540.625

$$$$
Amb35792146
 OpenBabel08272101522D

 43 46  0  0  1  0  0  0  0  0999 V2000
   -2.5823   -0.7045    0.0000 C   0  0  0  0  0  0  0  0  0  0  0  0
   -1.5878   -0.8090    0.0000 C   0  0  0  0  0  0  0  0  0  0  0  0
   -1.1810   -1.7226    0.0000 C   0  0  0  0  0  0  0  0  0  0  0  0
   -1.0000    0.0000    0.0000 C   0  0  0  0  0  0  0  0  0  0  0  0
   -1.3090    0.9511    0.0000 C   0  0  0  0  0  0  0  0  0  0  0  0
   -2.2601    1.2601    0.0000 C   0  0  0  0  0  0  0  0  0  0  0  0
   -2.4680    2.2382    0.0000 O   0  0  0  0  0  0  0  0  0  0  0  0
   -3.0032    0.5909    0.0000 N   0  0  0  0  0  0  0  0  0  0  0  0
   -3.9543    0.9000    0.0000 C   0  0  0  0  0  0  0  0  0  0  0  0
   -4.6974    0.2308    0.0000 C   0  0  0  0  0  0  0  0  0  0  0  0
   -5.6485    0.5398    0.0000 C   0  0  0  0  0  0  0  0  0  0  0  0
   -5.8564    1.5180    0.0000 C   0  0  0  0  0  0  0  0  0  0  0  0
   -5.1132    2.1871    0.0000 C   0  0  0  0  0  0  0  0  0  0  0  0
   -4.1622    1.8781    0.0000 C   0  0  0  0  0  0  0  0  0  0  0  0
   -0.5000    1.5388    0.0000 C   0  0  0  0  0  0  0  0  0  0  0  0
   -0.5000    2.5388    0.0000 C   0  0  0  0  0  0  0  0  0  0  0  0
   -1.3660    3.0388    0.0000 C   0  0  0  0  0  0  0  0  0  0  0  0
   -1.3660    4.0388    0.0000 C   0  0  0  0  0  0  0  0  0  0  0  0
   -0.5000    4.5388    0.0000 C   0  0  0  0  0  0  0  0  0  0  0  0
    0.3660    4.0388    0.0000 C   0  0  0  0  0  0  0  0  0  0  0  0
    0.3660    3.0388    0.0000 C   0  0  0  0  0  0  0  0  0  0  0  0
    0.3090    0.9511    0.0000 C   0  0  0  0  0  0  0  0  0  0  0  0
    1.2601    1.2601    0.0000 C   0  0  0  0  0  0  0  0  0  0  0  0
    1.4680    2.2382    0.0000 C   0  0  0  0  0  0  0  0  0  0  0  0
    2.4190    2.5472    0.0000 C   0  0  0  0  0  0  0  0  0  0  0  0
    3.1622    1.8781    0.0000 C   0  0  0  0  0  0  0  0  0  0  0  0
    4.1132    2.1871    0.0000 F   0  0  0  0  0  0  0  0  0  0  0  0
    2.9543    0.9000    0.0000 C   0  0  0  0  0  0  0  0  0  0  0  0
    2.0032    0.5909    0.0000 C   0  0  0  0  0  0  0  0  0  0  0  0
    0.0000   -0.0000    0.0000 N   0  0  0  0  0  0  0  0  0  0  0  0
    0.5878   -0.8090    0.0000 C   0  0  0  0  0  0  0  0  0  0  0  0
    1.5823   -0.7045    0.0000 C   0  0  0  0  0  0  0  0  0  0  0  0
    2.1701   -1.5135    0.0000 C   0  0  1  0  0  0  0  0  0  0  0  0
    3.0836   -1.9202    0.0000 H   0  0  0  0  0  0  0  0  0  0  0  0
    2.9791   -0.9257    0.0000 O   0  0  0  0  0  0  0  0  0  0  0  0
    1.7634   -2.4271    0.0000 C   0  0  0  0  0  0  0  0  0  0  0  0
    2.3511   -3.2361    0.0000 C   0  0  3  0  0  0  0  0  0  0  0  0
    1.9444   -4.1496    0.0000 Br  0  0  0  0  0  0  0  0  0  0  0  0
    3.3457   -3.1315    0.0000 C   0  0  3  0  0  0  0  0  0  0  0  0
    3.9334   -3.9406    0.0000 Br  0  0  0  0  0  0  0  0  0  0  0  0
    3.7524   -2.2180    0.0000 C   0  0  0  0  0  0  0  0  0  0  0  0
    4.7469   -2.1135    0.0000 O   0  0  0  0  0  0  0  0  0  0  0  0
    3.1646   -1.4090    0.0000 O   0  0  0  0  0  0  0  0  0  0  0  0
  1  2  1  0  0  0  0
  2  3  1  0  0  0  0
  2  4  1  0  0  0  0
  4 30  1  0  0  0  0
  4  5  2  0  0  0  0
  5  6  1  0  0  0  0
  5 15  1  0  0  0  0
  6  7  2  0  0  0  0
  6  8  1  0  0  0  0
  8  9  1  0  0  0  0
  9 14  1  0  0  0  0
  9 10  2  0  0  0  0
 10 11  1  0  0  0  0
 11 12  2  0  0  0  0
 12 13  1  0  0  0  0
 13 14  2  0  0  0  0
 15 16  1  0  0  0  0
 15 22  2  0  0  0  0
 16 21  1  0  0  0  0
 16 17  2  0  0  0  0
 17 18  1  0  0  0  0
 18 19  2  0  0  0  0
 19 20  1  0  0  0  0
 20 21  2  0  0  0  0
 22 23  1  0  0  0  0
 22 30  1  0  0  0  0
 23 29  1  0  0  0  0
 23 24  2  0  0  0  0
 24 25  1  0  0  0  0
 25 26  2  0  0  0  0
 26 27  1  0  0  0  0
 26 28  1  0  0  0  0
 28 29  2  0  0  0  0
 30 31  1  0  0  0  0
 31 32  1  0  0  0  0
 32 33  1  0  0  0  0
 33 34  1  6  0  0  0
 33 35  1  0  0  0  0
 33 36  1  0  0  0  0
 36 37  1  0  0  0  0
 37 38  1  0  0  0  0
 37 39  1  0  0  0  0
 39 40  1  0  0  0  0
 39 41  1  0  0  0  0
 41 42  1  0  0  0  0
 41 43  2  0  0  0  0
M  END
>  <Supplier>
www.ambinter.com

>  <Ambinter_reference>
Amb35792146

>  <MW>
700.433

$$$$
Amb35792147
 OpenBabel08272101522D

 41 44  0  0  1  0  0  0  0  0999 V2000
   -2.5823   -0.7045    0.0000 C   0  0  0  0  0  0  0  0  0  0  0  0
   -1.5878   -0.8090    0.0000 C   0  0  0  0  0  0  0  0  0  0  0  0
   -1.1810   -1.7226    0.0000 C   0  0  0  0  0  0  0  0  0  0  0  0
   -1.0000    0.0000    0.0000 C   0  0  0  0  0  0  0  0  0  0  0  0
   -1.3090    0.9511    0.0000 C   0  0  0  0  0  0  0  0  0  0  0  0
   -2.2601    1.2601    0.0000 C   0  0  0  0  0  0  0  0  0  0  0  0
   -2.4680    2.2382    0.0000 O   0  0  0  0  0  0  0  0  0  0  0  0
   -3.0032    0.5909    0.0000 N   0  0  0  0  0  0  0  0  0  0  0  0
   -3.9543    0.9000    0.0000 C   0  0  0  0  0  0  0  0  0  0  0  0
   -4.6974    0.2308    0.0000 C   0  0  0  0  0  0  0  0  0  0  0  0
   -5.6485    0.5398    0.0000 C   0  0  0  0  0  0  0  0  0  0  0  0
   -5.8564    1.5180    0.0000 C   0  0  0  0  0  0  0  0  0  0  0  0
   -5.1132    2.1871    0.0000 C   0  0  0  0  0  0  0  0  0  0  0  0
   -4.1622    1.8781    0.0000 C   0  0  0  0  0  0  0  0  0  0  0  0
   -0.5000    1.5388    0.0000 C   0  0  0  0  0  0  0  0  0  0  0  0
   -0.5000    2.5388    0.0000 C   0  0  0  0  0  0  0  0  0  0  0  0
   -1.3660    3.0388    0.0000 C   0  0  0  0  0  0  0  0  0  0  0  0
   -1.3660    4.0388    0.0000 C   0  0  0  0  0  0  0  0  0  0  0  0
   -0.5000    4.5388    0.0000 C   0  0  0  0  0  0  0  0  0  0  0  0
    0.3660    4.0388    0.0000 C   0  0  0  0  0  0  0  0  0  0  0  0
    0.3660    3.0388    0.0000 C   0  0  0  0  0  0  0  0  0  0  0  0
    0.3090    0.9511    0.0000 C   0  0  0  0  0  0  0  0  0  0  0  0
    1.2601    1.2601    0.0000 C   0  0  0  0  0  0  0  0  0  0  0  0
    1.4680    2.2382    0.0000 C   0  0  0  0  0  0  0  0  0  0  0  0
    2.4190    2.5472    0.0000 C   0  0  0  0  0  0  0  0  0  0  0  0
    3.1622    1.8781    0.0000 C   0  0  0  0  0  0  0  0  0  0  0  0
    4.1132    2.1871    0.0000 F   0  0  0  0  0  0  0  0  0  0  0  0
    2.9543    0.9000    0.0000 C   0  0  0  0  0  0  0  0  0  0  0  0
    2.0032    0.5909    0.0000 C   0  0  0  0  0  0  0  0  0  0  0  0
    0.0000   -0.0000    0.0000 N   0  0  0  0  0  0  0  0  0  0  0  0
    0.5878   -0.8090    0.0000 C   0  0  0  0  0  0  0  0  0  0  0  0
    1.5823   -0.7045    0.0000 C   0  0  0  0  0  0  0  0  0  0  0  0
    2.1701   -1.5135    0.0000 C   0  0  1  0  0  0  0  0  0  0  0  0
    3.0836   -1.9202    0.0000 H   0  0  0  0  0  0  0  0  0  0  0  0
    2.9791   -0.9257    0.0000 O   0  0  0  0  0  0  0  0  0  0  0  0
    1.7634   -2.4271    0.0000 C   0  0  0  0  0  0  0  0  0  0  0  0
    2.3511   -3.2361    0.0000 C   0  0  0  0  0  0  0  0  0  0  0  0
    1.9444   -4.1496    0.0000 C   0  0  0  0  0  0  0  0  0  0  0  0
    2.5322   -4.9586    0.0000 C   0  0  0  0  0  0  0  0  0  0  0  0
    2.1255   -5.8722    0.0000 O   0  0  0  0  0  0  0  0  0  0  0  0
    3.5267   -4.8541    0.0000 O   0  0  0  0  0  0  0  0  0  0  0  0
  1  2  1  0  0  0  0
  2  3  1  0  0  0  0
  2  4  1  0  0  0  0
  4 30  1  0  0  0  0
  4  5  2  0  0  0  0
  5  6  1  0  0  0  0
  5 15  1  0  0  0  0
  6  7  2  0  0  0  0
  6  8  1  0  0  0  0
  8  9  1  0  0  0  0
  9 14  1  0  0  0  0
  9 10  2  0  0  0  0
 10 11  1  0  0  0  0
 11 12  2  0  0  0  0
 12 13  1  0  0  0  0
 13 14  2  0  0  0  0
 15 16  1  0  0  0  0
 15 22  2  0  0  0  0
 16 21  1  0  0  0  0
 16 17  2  0  0  0  0
 17 18  1  0  0  0  0
 18 19  2  0  0  0  0
 19 20  1  0  0  0  0
 20 21  2  0  0  0  0
 22 23  1  0  0  0  0
 22 30  1  0  0  0  0
 23 29  1  0  0  0  0
 23 24  2  0  0  0  0
 24 25  1  0  0  0  0
 25 26  2  0  0  0  0
 26 27  1  0  0  0  0
 26 28  1  0  0  0  0
 28 29  2  0  0  0  0
 30 31  1  0  0  0  0
 31 32  1  0  0  0  0
 32 33  1  0  0  0  0
 33 34  1  6  0  0  0
 33 35  1  0  0  0  0
 33 36  1  0  0  0  0
 36 37  1  0  0  0  0
 37 38  1  0  0  0  0
 38 39  1  0  0  0  0
 39 40  1  0  0  0  0
 39 41  2  0  0  0  0
M  END
>  <Supplier>
www.ambinter.com

>  <Ambinter_reference>
Amb35792147

>  <MW>
542.64

$$$$
Amb35792148
 OpenBabel08272101522D

 44 47  0  0  1  0  0  0  0  0999 V2000
    1.5799   -2.5826    0.0000 C   0  0  0  0  0  0  0  0  0  0  0  0
    2.5744   -2.6871    0.0000 C   0  0  0  0  0  0  0  0  0  0  0  0
    2.9811   -3.6007    0.0000 C   0  0  0  0  0  0  0  0  0  0  0  0
    3.1622   -1.8781    0.0000 C   0  0  0  0  0  0  0  0  0  0  0  0
    2.8532   -0.9271    0.0000 C   0  0  0  0  0  0  0  0  0  0  0  0
    3.6622   -0.3393    0.0000 C   0  0  0  0  0  0  0  0  0  0  0  0
    4.4712   -0.9271    0.0000 C   0  0  0  0  0  0  0  0  0  0  0  0
    5.4223   -0.6180    0.0000 C   0  0  0  0  0  0  0  0  0  0  0  0
    5.6302    0.3601    0.0000 C   0  0  0  0  0  0  0  0  0  0  0  0
    6.5812    0.6691    0.0000 C   0  0  0  0  0  0  0  0  0  0  0  0
    7.3244    0.0000    0.0000 C   0  0  0  0  0  0  0  0  0  0  0  0
    8.2754    0.3090    0.0000 F   0  0  0  0  0  0  0  0  0  0  0  0
    7.1165   -0.9781    0.0000 C   0  0  0  0  0  0  0  0  0  0  0  0
    6.1654   -1.2872    0.0000 C   0  0  0  0  0  0  0  0  0  0  0  0
    4.1622   -1.8781    0.0000 N   0  0  0  0  0  0  0  0  0  0  0  0
    4.7500   -2.6871    0.0000 C   0  0  0  0  0  0  0  0  0  0  0  0
    5.7445   -2.5826    0.0000 C   0  0  0  0  0  0  0  0  0  0  0  0
    6.3323   -3.3916    0.0000 C   0  0  3  0  0  0  0  0  0  0  0  0
    5.9255   -4.3052    0.0000 O   0  0  0  0  0  0  0  0  0  0  0  0
    7.3268   -3.2871    0.0000 C   0  0  0  0  0  0  0  0  0  0  0  0
    7.9146   -4.0961    0.0000 C   0  0  3  0  0  0  0  0  0  0  0  0
    7.5078   -5.0096    0.0000 O   0  0  0  0  0  0  0  0  0  0  0  0
    8.9091   -3.9916    0.0000 C   0  0  0  0  0  0  0  0  0  0  0  0
    9.4969   -4.8006    0.0000 C   0  0  0  0  0  0  0  0  0  0  0  0
    9.0902   -5.7141    0.0000 O   0  0  0  0  0  0  0  0  0  0  0  0
   10.4914   -4.6961    0.0000 O   0  0  0  0  0  0  0  0  0  0  0  0
   11.0792   -5.5051    0.0000 C   0  0  0  0  0  0  0  0  0  0  0  0
   10.6725   -6.4186    0.0000 C   0  0  0  0  0  0  0  0  0  0  0  0
   12.0737   -5.4006    0.0000 C   0  0  0  0  0  0  0  0  0  0  0  0
    3.6622    0.6607    0.0000 C   0  0  0  0  0  0  0  0  0  0  0  0
    2.7962    1.1607    0.0000 C   0  0  0  0  0  0  0  0  0  0  0  0
    2.7962    2.1607    0.0000 C   0  0  0  0  0  0  0  0  0  0  0  0
    3.6622    2.6607    0.0000 C   0  0  0  0  0  0  0  0  0  0  0  0
    4.5282    2.1607    0.0000 C   0  0  0  0  0  0  0  0  0  0  0  0
    4.5282    1.1607    0.0000 C   0  0  0  0  0  0  0  0  0  0  0  0
    1.9021   -0.6180    0.0000 C   0  0  0  0  0  0  0  0  0  0  0  0
    1.6942    0.3601    0.0000 O   0  0  0  0  0  0  0  0  0  0  0  0
    1.1590   -1.2872    0.0000 N   0  0  0  0  0  0  0  0  0  0  0  0
    0.2079   -0.9781    0.0000 C   0  0  0  0  0  0  0  0  0  0  0  0
   -0.5352   -1.6473    0.0000 C   0  0  0  0  0  0  0  0  0  0  0  0
   -1.4863   -1.3383    0.0000 C   0  0  0  0  0  0  0  0  0  0  0  0
   -1.6942   -0.3601    0.0000 C   0  0  0  0  0  0  0  0  0  0  0  0
   -0.9511    0.3090    0.0000 C   0  0  0  0  0  0  0  0  0  0  0  0
    0.0000   -0.0000    0.0000 C   0  0  0  0  0  0  0  0  0  0  0  0
  1  2  1  0  0  0  0
  2  3  1  0  0  0  0
  2  4  1  0  0  0  0
  4 15  1  0  0  0  0
  4  5  2  0  0  0  0
  5  6  1  0  0  0  0
  5 36  1  0  0  0  0
  6  7  2  0  0  0  0
  6 30  1  0  0  0  0
  7  8  1  0  0  0  0
  7 15  1  0  0  0  0
  8 14  1  0  0  0  0
  8  9  2  0  0  0  0
  9 10  1  0  0  0  0
 10 11  2  0  0  0  0
 11 12  1  0  0  0  0
 11 13  1  0  0  0  0
 13 14  2  0  0  0  0
 15 16  1  0  0  0  0
 16 17  1  0  0  0  0
 17 18  1  0  0  0  0
 18 19  1  0  0  0  0
 18 20  1  0  0  0  0
 20 21  1  0  0  0  0
 21 22  1  0  0  0  0
 21 23  1  0  0  0  0
 23 24  1  0  0  0  0
 24 25  2  0  0  0  0
 24 26  1  0  0  0  0
 26 27  1  0  0  0  0
 27 28  1  0  0  0  0
 27 29  1  0  0  0  0
 30 35  1  0  0  0  0
 30 31  2  0  0  0  0
 31 32  1  0  0  0  0
 32 33  2  0  0  0  0
 33 34  1  0  0  0  0
 34 35  2  0  0  0  0
 36 37  2  0  0  0  0
 36 38  1  0  0  0  0
 38 39  1  0  0  0  0
 39 44  1  0  0  0  0
 39 40  2  0  0  0  0
 40 41  1  0  0  0  0
 41 42  2  0  0  0  0
 42 43  1  0  0  0  0
 43 44  2  0  0  0  0
M  END
>  <Supplier>
www.ambinter.com

>  <Ambinter_reference>
Amb35792148

>  <MW>
600.72

$$$$
Amb35792362
 OpenBabel08272101522D

 44 47  0  0  1  0  0  0  0  0999 V2000
    1.5799   -2.5826    0.0000 C   0  0  0  0  0  0  0  0  0  0  0  0
    2.5744   -2.6871    0.0000 C   0  0  0  0  0  0  0  0  0  0  0  0
    2.9811   -3.6007    0.0000 C   0  0  0  0  0  0  0  0  0  0  0  0
    3.1622   -1.8781    0.0000 C   0  0  0  0  0  0  0  0  0  0  0  0
    2.8532   -0.9271    0.0000 C   0  0  0  0  0  0  0  0  0  0  0  0
    3.6622   -0.3393    0.0000 C   0  0  0  0  0  0  0  0  0  0  0  0
    4.4712   -0.9271    0.0000 C   0  0  0  0  0  0  0  0  0  0  0  0
    5.4223   -0.6180    0.0000 C   0  0  0  0  0  0  0  0  0  0  0  0
    5.6302    0.3601    0.0000 C   0  0  0  0  0  0  0  0  0  0  0  0
    6.5812    0.6691    0.0000 C   0  0  0  0  0  0  0  0  0  0  0  0
    7.3244   -0.0000    0.0000 C   0  0  0  0  0  0  0  0  0  0  0  0
    8.2754    0.3090    0.0000 F   0  0  0  0  0  0  0  0  0  0  0  0
    7.1165   -0.9781    0.0000 C   0  0  0  0  0  0  0  0  0  0  0  0
    6.1654   -1.2872    0.0000 C   0  0  0  0  0  0  0  0  0  0  0  0
    4.1622   -1.8781    0.0000 N   0  0  0  0  0  0  0  0  0  0  0  0
    4.7500   -2.6871    0.0000 C   0  0  0  0  0  0  0  0  0  0  0  0
    5.7445   -2.5826    0.0000 C   0  0  0  0  0  0  0  0  0  0  0  0
    6.3323   -3.3916    0.0000 C   0  0  1  0  0  0  0  0  0  0  0  0
    7.2458   -3.7983    0.0000 H   0  0  0  0  0  0  0  0  0  0  0  0
    7.1413   -2.8038    0.0000 O   0  0  0  0  0  0  0  0  0  0  0  0
    5.9255   -4.3052    0.0000 C   0  0  0  0  0  0  0  0  0  0  0  0
    6.5133   -5.1142    0.0000 C   0  0  2  0  0  0  0  0  0  0  0  0
    7.4269   -5.5209    0.0000 H   0  0  0  0  0  0  0  0  0  0  0  0
    7.3223   -4.5264    0.0000 O   0  0  0  0  0  0  0  0  0  0  0  0
    6.1066   -6.0277    0.0000 C   0  0  0  0  0  0  0  0  0  0  0  0
    6.6944   -6.8367    0.0000 C   0  0  0  0  0  0  0  0  0  0  0  0
    6.2876   -7.7503    0.0000 O   0  0  0  0  0  0  0  0  0  0  0  0
    7.6889   -6.7322    0.0000 O   0  0  0  0  0  0  0  0  0  0  0  0
    8.2767   -7.5412    0.0000 C   0  0  0  0  0  0  0  0  0  0  0  0
    3.6622    0.6607    0.0000 C   0  0  0  0  0  0  0  0  0  0  0  0
    2.7962    1.1607    0.0000 C   0  0  0  0  0  0  0  0  0  0  0  0
    2.7962    2.1607    0.0000 C   0  0  0  0  0  0  0  0  0  0  0  0
    3.6622    2.6607    0.0000 C   0  0  0  0  0  0  0  0  0  0  0  0
    4.5282    2.1607    0.0000 C   0  0  0  0  0  0  0  0  0  0  0  0
    4.5282    1.1607    0.0000 C   0  0  0  0  0  0  0  0  0  0  0  0
    1.9021   -0.6180    0.0000 C   0  0  0  0  0  0  0  0  0  0  0  0
    1.6942    0.3601    0.0000 O   0  0  0  0  0  0  0  0  0  0  0  0
    1.1590   -1.2872    0.0000 N   0  0  0  0  0  0  0  0  0  0  0  0
    0.2079   -0.9781    0.0000 C   0  0  0  0  0  0  0  0  0  0  0  0
   -0.5352   -1.6473    0.0000 C   0  0  0  0  0  0  0  0  0  0  0  0
   -1.4863   -1.3383    0.0000 C   0  0  0  0  0  0  0  0  0  0  0  0
   -1.6942   -0.3601    0.0000 C   0  0  0  0  0  0  0  0  0  0  0  0
   -0.9511    0.3090    0.0000 C   0  0  0  0  0  0  0  0  0  0  0  0
    0.0000   -0.0000    0.0000 C   0  0  0  0  0  0  0  0  0  0  0  0
  1  2  1  0  0  0  0
  2  3  1  0  0  0  0
  2  4  1  0  0  0  0
  4 15  1  0  0  0  0
  4  5  2  0  0  0  0
  5  6  1  0  0  0  0
  5 36  1  0  0  0  0
  6  7  2  0  0  0  0
  6 30  1  0  0  0  0
  7  8  1  0  0  0  0
  7 15  1  0  0  0  0
  8 14  1  0  0  0  0
  8  9  2  0  0  0  0
  9 10  1  0  0  0  0
 10 11  2  0  0  0  0
 11 12  1  0  0  0  0
 11 13  1  0  0  0  0
 13 14  2  0  0  0  0
 15 16  1  0  0  0  0
 16 17  1  0  0  0  0
 17 18  1  0  0  0  0
 18 19  1  6  0  0  0
 18 20  1  0  0  0  0
 18 21  1  0  0  0  0
 21 22  1  0  0  0  0
 22 23  1  1  0  0  0
 22 24  1  0  0  0  0
 22 25  1  0  0  0  0
 25 26  1  0  0  0  0
 26 27  2  0  0  0  0
 26 28  1  0  0  0  0
 28 29  1  0  0  0  0
 30 35  1  0  0  0  0
 30 31  2  0  0  0  0
 31 32  1  0  0  0  0
 32 33  2  0  0  0  0
 33 34  1  0  0  0  0
 34 35  2  0  0  0  0
 36 37  2  0  0  0  0
 36 38  1  0  0  0  0
 38 39  1  0  0  0  0
 39 44  1  0  0  0  0
 39 40  2  0  0  0  0
 40 41  1  0  0  0  0
 41 42  2  0  0  0  0
 42 43  1  0  0  0  0
 43 44  2  0  0  0  0
M  END
>  <Supplier>
www.ambinter.com

>  <Ambinter_reference>
Amb35792362

>  <MW>
572.666

$$$$
Amb35792363
 OpenBabel08272101522D

 37 39  0  0  1  0  0  0  0  0999 V2000
    2.3794    1.2260    0.0000 C   0  0  0  0  0  0  0  0  0  0  0  0
    1.3849    1.1215    0.0000 C   0  0  0  0  0  0  0  0  0  0  0  0
    0.7971    1.9305    0.0000 C   0  0  0  0  0  0  0  0  0  0  0  0
    0.9781    0.2079    0.0000 C   0  0  0  0  0  0  0  0  0  0  0  0
    1.4781   -0.6581    0.0000 C   0  0  0  0  0  0  0  0  0  0  0  0
    2.4727   -0.7626    0.0000 C   0  0  0  0  0  0  0  0  0  0  0  0
    2.8794   -1.6762    0.0000 O   0  0  0  0  0  0  0  0  0  0  0  0
    3.0605    0.0464    0.0000 O   0  0  0  0  0  0  0  0  0  0  0  0
    0.8090   -1.4013    0.0000 C   0  0  0  0  0  0  0  0  0  0  0  0
    1.0169   -2.3794    0.0000 C   0  0  0  0  0  0  0  0  0  0  0  0
    1.9680   -2.6884    0.0000 C   0  0  0  0  0  0  0  0  0  0  0  0
    2.1759   -3.6666    0.0000 C   0  0  0  0  0  0  0  0  0  0  0  0
    1.4328   -4.3357    0.0000 C   0  0  0  0  0  0  0  0  0  0  0  0
    0.4817   -4.0267    0.0000 C   0  0  0  0  0  0  0  0  0  0  0  0
    0.2738   -3.0485    0.0000 C   0  0  0  0  0  0  0  0  0  0  0  0
   -0.1045   -0.9945    0.0000 C   0  0  0  0  0  0  0  0  0  0  0  0
   -0.9706   -1.4945    0.0000 C   0  0  0  0  0  0  0  0  0  0  0  0
   -0.9706   -2.4945    0.0000 C   0  0  0  0  0  0  0  0  0  0  0  0
   -1.8366   -2.9945    0.0000 C   0  0  0  0  0  0  0  0  0  0  0  0
   -2.7026   -2.4945    0.0000 C   0  0  0  0  0  0  0  0  0  0  0  0
   -3.5686   -2.9945    0.0000 F   0  0  0  0  0  0  0  0  0  0  0  0
   -2.7026   -1.4945    0.0000 C   0  0  0  0  0  0  0  0  0  0  0  0
   -1.8366   -0.9945    0.0000 C   0  0  0  0  0  0  0  0  0  0  0  0
    0.0000   -0.0000    0.0000 N   0  0  0  0  0  0  0  0  0  0  0  0
   -0.7431    0.6691    0.0000 C   0  0  0  0  0  0  0  0  0  0  0  0
   -1.6942    0.3601    0.0000 C   0  0  0  0  0  0  0  0  0  0  0  0
   -2.4373    1.0292    0.0000 C   0  0  1  0  0  0  0  0  0  0  0  0
   -3.4155    1.2372    0.0000 H   0  0  0  0  0  0  0  0  0  0  0  0
   -3.1065    0.2861    0.0000 O   0  0  0  0  0  0  0  0  0  0  0  0
   -2.2294    2.0074    0.0000 C   0  0  0  0  0  0  0  0  0  0  0  0
   -2.9726    2.6765    0.0000 C   0  0  1  0  0  0  0  0  0  0  0  0
   -3.9507    2.8844    0.0000 H   0  0  0  0  0  0  0  0  0  0  0  0
   -3.6417    1.9334    0.0000 O   0  0  0  0  0  0  0  0  0  0  0  0
   -2.7647    3.6547    0.0000 C   0  0  0  0  0  0  0  0  0  0  0  0
   -3.5078    4.3238    0.0000 C   0  0  0  0  0  0  0  0  0  0  0  0
   -3.2999    5.3019    0.0000 O   0  0  0  0  0  0  0  0  0  0  0  0
   -4.4589    4.0148    0.0000 O   0  0  0  0  0  0  0  0  0  0  0  0
  1  2  1  0  0  0  0
  2  3  1  0  0  0  0
  2  4  1  0  0  0  0
  4 24  1  0  0  0  0
  4  5  2  0  0  0  0
  5  6  1  0  0  0  0
  5  9  1  0  0  0  0
  6  7  1  0  0  0  0
  6  8  2  0  0  0  0
  9 10  1  0  0  0  0
  9 16  2  0  0  0  0
 10 15  1  0  0  0  0
 10 11  2  0  0  0  0
 11 12  1  0  0  0  0
 12 13  2  0  0  0  0
 13 14  1  0  0  0  0
 14 15  2  0  0  0  0
 16 17  1  0  0  0  0
 16 24  1  0  0  0  0
 17 23  1  0  0  0  0
 17 18  2  0  0  0  0
 18 19  1  0  0  0  0
 19 20  2  0  0  0  0
 20 21  1  0  0  0  0
 20 22  1  0  0  0  0
 22 23  2  0  0  0  0
 24 25  1  0  0  0  0
 25 26  1  0  0  0  0
 26 27  1  0  0  0  0
 27 28  1  6  0  0  0
 27 29  1  0  0  0  0
 27 30  1  0  0  0  0
 30 31  1  0  0  0  0
 31 32  1  6  0  0  0
 31 33  1  0  0  0  0
 31 34  1  0  0  0  0
 34 35  1  0  0  0  0
 35 36  1  0  0  0  0
 35 37  2  0  0  0  0
M  END
>  <Supplier>
www.ambinter.com

>  <Ambinter_reference>
Amb35792363

>  <MW>
483.529

$$$$
Amb35795833
 OpenBabel08272101522D

 58 62  0  0  1  0  0  0  0  0999 V2000
    6.1470    0.4028    0.0000 C   0  0  0  0  0  0  0  0  0  0  0  0
    7.0380    0.8568    0.0000 C   0  0  0  0  0  0  0  0  0  0  0  0
    7.8767    0.3122    0.0000 C   0  0  0  0  0  0  0  0  0  0  0  0
    7.0903    1.8554    0.0000 C   0  0  0  0  0  0  0  0  0  0  0  0
    7.9290    2.4001    0.0000 C   0  0  0  0  0  0  0  0  0  0  0  0
    8.8626    2.0417    0.0000 C   0  0  0  0  0  0  0  0  0  0  0  0
    9.6397    2.6710    0.0000 O   0  0  0  0  0  0  0  0  0  0  0  0
    9.0190    1.0540    0.0000 N   0  0  0  0  0  0  0  0  0  0  0  0
    9.9526    0.6957    0.0000 C   0  0  0  0  0  0  0  0  0  0  0  0
   10.1090   -0.2920    0.0000 C   0  0  0  0  0  0  0  0  0  0  0  0
   11.0426   -0.6504    0.0000 C   0  0  0  0  0  0  0  0  0  0  0  0
   11.8198   -0.0211    0.0000 C   0  0  0  0  0  0  0  0  0  0  0  0
   11.6633    0.9666    0.0000 C   0  0  0  0  0  0  0  0  0  0  0  0
   10.7298    1.3250    0.0000 C   0  0  0  0  0  0  0  0  0  0  0  0
   10.5733    2.3127    0.0000 O   0  0  0  0  0  0  0  0  0  0  0  0
    7.6702    3.3660    0.0000 C   0  0  0  0  0  0  0  0  0  0  0  0
    8.2995    4.1432    0.0000 C   0  0  0  0  0  0  0  0  0  0  0  0
    9.2872    3.9867    0.0000 C   0  0  0  0  0  0  0  0  0  0  0  0
    9.9165    4.7639    0.0000 C   0  0  0  0  0  0  0  0  0  0  0  0
    9.5582    5.6974    0.0000 C   0  0  0  0  0  0  0  0  0  0  0  0
    8.5705    5.8539    0.0000 C   0  0  0  0  0  0  0  0  0  0  0  0
    7.9411    5.0767    0.0000 C   0  0  0  0  0  0  0  0  0  0  0  0
    6.6716    3.4183    0.0000 C   0  0  0  0  0  0  0  0  0  0  0  0
    6.1269    4.2570    0.0000 C   0  0  0  0  0  0  0  0  0  0  0  0
    6.5809    5.1480    0.0000 C   0  0  0  0  0  0  0  0  0  0  0  0
    6.0363    5.9867    0.0000 C   0  0  0  0  0  0  0  0  0  0  0  0
    5.0376    5.9344    0.0000 C   0  0  0  0  0  0  0  0  0  0  0  0
    4.4930    6.7730    0.0000 F   0  0  0  0  0  0  0  0  0  0  0  0
    4.5837    5.0434    0.0000 C   0  0  0  0  0  0  0  0  0  0  0  0
    5.1283    4.2047    0.0000 C   0  0  0  0  0  0  0  0  0  0  0  0
    6.3132    2.4848    0.0000 N   0  0  0  0  0  0  0  0  0  0  0  0
    5.3473    2.2259    0.0000 C   0  0  0  0  0  0  0  0  0  0  0  0
    5.0884    1.2600    0.0000 C   0  0  0  0  0  0  0  0  0  0  0  0
    4.1225    1.0012    0.0000 C   0  0  1  0  0  0  0  0  0  0  0  0
    3.1566    1.2600    0.0000 H   0  0  0  0  0  0  0  0  0  0  0  0
    3.8637    1.9671    0.0000 O   0  0  0  0  0  0  0  0  0  0  0  0
    3.8637    0.0353    0.0000 C   0  0  0  0  0  0  0  0  0  0  0  0
    2.8978   -0.2235    0.0000 C   0  0  1  0  0  0  0  0  0  0  0  0
    1.9319    0.0353    0.0000 H   0  0  0  0  0  0  0  0  0  0  0  0
    2.6390    0.7424    0.0000 O   0  0  0  0  0  0  0  0  0  0  0  0
    2.6390   -1.1895    0.0000 C   0  0  0  0  0  0  0  0  0  0  0  0
    1.6730   -1.4483    0.0000 C   0  0  0  0  0  0  0  0  0  0  0  0
    1.4142   -2.4142    0.0000 O   0  0  0  0  0  0  0  0  0  0  0  0
    0.9659   -0.7412    0.0000 O   0  0  0  0  0  0  0  0  0  0  0  0
    0.0000   -1.0000    0.0000 C   0  0  2  0  0  0  0  0  0  0  0  0
   -0.1305   -1.9914    0.0000 H   0  0  0  0  0  0  0  0  0  0  0  0
   -0.8660   -1.5000    0.0000 O   0  0  0  0  0  0  0  0  0  0  0  0
   -1.7321   -1.0000    0.0000 C   0  0  3  0  0  0  0  0  0  0  0  0
   -1.7321    0.0000    0.0000 C   0  0  2  0  0  0  0  0  0  0  0  0
   -2.2321    0.8660    0.0000 H   0  0  0  0  0  0  0  0  0  0  0  0
   -2.7321   -0.0000    0.0000 O   0  0  0  0  0  0  0  0  0  0  0  0
   -0.8660    0.5000    0.0000 C   0  0  3  0  0  0  0  0  0  0  0  0
   -0.8660    1.5000    0.0000 O   0  0  0  0  0  0  0  0  0  0  0  0
    0.0000    0.0000    0.0000 C   0  0  3  0  0  0  0  0  0  0  0  0
    0.8660    0.5000    0.0000 O   0  0  0  0  0  0  0  0  0  0  0  0
   -2.5981   -1.5000    0.0000 C   0  0  0  0  0  0  0  0  0  0  0  0
   -3.4641   -1.0000    0.0000 O   0  0  0  0  0  0  0  0  0  0  0  0
   -2.5981   -2.5000    0.0000 O   0  0  0  0  0  0  0  0  0  0  0  0
  1  2  1  0  0  0  0
  2  3  1  0  0  0  0
  2  4  1  0  0  0  0
  4 31  1  0  0  0  0
  4  5  2  0  0  0  0
  5  6  1  0  0  0  0
  5 16  1  0  0  0  0
  6  7  2  0  0  0  0
  6  8  1  0  0  0  0
  8  9  1  0  0  0  0
  9 14  1  0  0  0  0
  9 10  2  0  0  0  0
 10 11  1  0  0  0  0
 11 12  2  0  0  0  0
 12 13  1  0  0  0  0
 13 14  2  0  0  0  0
 14 15  1  0  0  0  0
 16 17  1  0  0  0  0
 16 23  2  0  0  0  0
 17 22  1  0  0  0  0
 17 18  2  0  0  0  0
 18 19  1  0  0  0  0
 19 20  2  0  0  0  0
 20 21  1  0  0  0  0
 21 22  2  0  0  0  0
 23 24  1  0  0  0  0
 23 31  1  0  0  0  0
 24 30  1  0  0  0  0
 24 25  2  0  0  0  0
 25 26  1  0  0  0  0
 26 27  2  0  0  0  0
 27 28  1  0  0  0  0
 27 29  1  0  0  0  0
 29 30  2  0  0  0  0
 31 32  1  0  0  0  0
 32 33  1  0  0  0  0
 33 34  1  0  0  0  0
 34 35  1  1  0  0  0
 34 36  1  0  0  0  0
 34 37  1  0  0  0  0
 37 38  1  0  0  0  0
 38 39  1  1  0  0  0
 38 40  1  0  0  0  0
 38 41  1  0  0  0  0
 41 42  1  0  0  0  0
 42 43  2  0  0  0  0
 42 44  1  0  0  0  0
 44 45  1  0  0  0  0
 45 46  1  1  0  0  0
 45 54  1  0  0  0  0
 45 47  1  0  0  0  0
 47 48  1  0  0  0  0
 48 49  1  0  0  0  0
 48 56  1  0  0  0  0
 49 50  1  1  0  0  0
 49 51  1  0  0  0  0
 49 52  1  0  0  0  0
 52 53  1  0  0  0  0
 52 54  1  0  0  0  0
 54 55  1  0  0  0  0
 56 57  1  0  0  0  0
 56 58  2  0  0  0  0
M  END
>  <Supplier>
www.ambinter.com

>  <Ambinter_reference>
Amb35795833

>  <MW>
750.763

$$$$
Amb35797317
 OpenBabel08272101522D

 49 51  0  0  1  0  0  0  0  0999 V2000
    2.6167   -4.5662    0.0000 Na  0  3  0  0  0 15  0  0  0  0  0  0
    4.9637   -0.5000    0.0000 H   0  0  0  0  0  0  0  0  0  0  0  0
    4.7597   -1.4593    0.0000 C   0  0  0  0  0  0  0  0  0  0  0  0
    5.4886   -2.1156    0.0000 C   0  0  0  0  0  0  0  0  0  0  0  0
    6.4214   -1.8125    0.0000 H   0  0  0  0  0  0  0  0  0  0  0  0
    5.2847   -3.0749    0.0000 C   0  0  0  0  0  0  0  0  0  0  0  0
    6.0135   -3.7312    0.0000 H   0  0  0  0  0  0  0  0  0  0  0  0
    4.3519   -3.3780    0.0000 C   0  0  0  0  0  0  0  0  0  0  0  0
    3.9441   -5.2967    0.0000 C   0  0  0  0  0  0  0  0  0  0  0  0
    4.6004   -6.0255    0.0000 C   0  0  0  0  0  0  0  0  0  0  0  0
    4.1100   -6.8749    0.0000 C   0  0  0  0  0  0  0  0  0  0  0  0
    4.5089   -7.7709    0.0000 C   0  0  0  0  0  0  0  0  0  0  0  0
    3.9324   -8.5643    0.0000 C   0  0  0  0  0  0  0  0  0  0  0  0
    5.4843   -7.8734    0.0000 C   0  0  0  0  0  0  0  0  0  0  0  0
    3.1506   -6.6710    0.0000 N   0  0  0  0  0  0  0  0  0  0  0  0
    2.4218   -7.3273    0.0000 C   0  0  0  0  0  0  0  0  0  0  0  0
    2.6257   -8.2866    0.0000 C   0  0  0  0  0  0  0  0  0  0  0  0
    1.8968   -8.9429    0.0000 C   0  0  1  0  0  0  0  0  0  0  0  0
    0.9375   -9.1468    0.0000 H   0  0  0  0  0  0  0  0  0  0  0  0
    1.2406   -8.2140    0.0000 O   0  0  0  0  0  0  0  0  0  0  0  0
    2.1008   -9.9022    0.0000 C   0  0  0  0  0  0  0  0  0  0  0  0
    3.0335  -10.2053    0.0000 C   0  0  1  0  0  0  0  0  0  0  0  0
    3.6898  -10.9341    0.0000 H   0  0  0  0  0  0  0  0  0  0  0  0
    2.7304  -11.1380    0.0000 O   0  0  0  0  0  0  0  0  0  0  0  0
    3.7624   -9.5490    0.0000 C   0  0  0  0  0  0  0  0  0  0  0  0
    4.6951   -9.8521    0.0000 C   0  0  0  0  0  0  0  0  0  0  0  0
    5.4240   -9.1958    0.0000 O   0  5  0  0  0  0  0  0  0  0  0  0
    4.8991  -10.8114    0.0000 O   0  0  0  0  0  0  0  0  0  0  0  0
    3.0481   -5.6956    0.0000 C   0  0  0  0  0  0  0  0  0  0  0  0
    2.1987   -5.2052    0.0000 C   0  0  0  0  0  0  0  0  0  0  0  0
    2.1987   -4.2244    0.0000 C   0  0  0  0  0  0  0  0  0  0  0  0
    1.3494   -3.7341    0.0000 C   0  0  0  0  0  0  0  0  0  0  0  0
    0.5000   -4.2244    0.0000 C   0  0  0  0  0  0  0  0  0  0  0  0
    0.5000   -5.2052    0.0000 C   0  0  0  0  0  0  0  0  0  0  0  0
    1.3494   -5.6956    0.0000 C   0  0  0  0  0  0  0  0  0  0  0  0
    1.3494   -6.6764    0.0000 F   0  0  0  0  0  0  0  0  0  0  0  0
    5.5757   -5.9230    0.0000 C   0  0  0  0  0  0  0  0  0  0  0  0
    6.1522   -6.7165    0.0000 O   0  0  0  0  0  0  0  0  0  0  0  0
    5.9747   -5.0270    0.0000 N   0  0  0  0  0  0  0  0  0  0  0  0
    6.9501   -4.9245    0.0000 C   0  0  0  0  0  0  0  0  0  0  0  0
    7.3490   -4.0285    0.0000 C   0  0  0  0  0  0  0  0  0  0  0  0
    8.3244   -3.9260    0.0000 C   0  0  0  0  0  0  0  0  0  0  0  0
    8.9009   -4.7195    0.0000 C   0  0  0  0  0  0  0  0  0  0  0  0
    8.5019   -5.6155    0.0000 C   0  0  0  0  0  0  0  0  0  0  0  0
    7.5265   -5.7180    0.0000 C   0  0  0  0  0  0  0  0  0  0  0  0
    3.6231   -2.7217    0.0000 C   0  0  0  0  0  0  0  0  0  0  0  0
    2.6903   -3.0248    0.0000 H   0  0  0  0  0  0  0  0  0  0  0  0
    3.8270   -1.7624    0.0000 C   0  0  0  0  0  0  0  0  0  0  0  0
    3.0981   -1.1061    0.0000 H   0  0  0  0  0  0  0  0  0  0  0  0
  2  3  1  0  0  0  0
  3 48  1  0  0  0  0
  3  4  2  0  0  0  0
  4  5  1  0  0  0  0
  4  6  1  0  0  0  0
  6  7  1  0  0  0  0
  6  8  2  0  0  0  0
  8  9  1  0  0  0  0
  8 46  1  0  0  0  0
  9 29  2  0  0  0  0
  9 10  1  0  0  0  0
 10 11  2  0  0  0  0
 10 37  1  0  0  0  0
 11 12  1  0  0  0  0
 11 15  1  0  0  0  0
 12 13  1  0  0  0  0
 12 14  1  0  0  0  0
 15 16  1  0  0  0  0
 15 29  1  0  0  0  0
 16 17  1  0  0  0  0
 17 18  1  0  0  0  0
 18 19  1  1  0  0  0
 18 20  1  0  0  0  0
 18 21  1  0  0  0  0
 21 22  1  0  0  0  0
 22 23  1  1  0  0  0
 22 24  1  0  0  0  0
 22 25  1  0  0  0  0
 25 26  1  0  0  0  0
 26 27  1  0  0  0  0
 26 28  2  0  0  0  0
 29 30  1  0  0  0  0
 30 35  1  0  0  0  0
 30 31  2  0  0  0  0
 31 32  1  0  0  0  0
 32 33  2  0  0  0  0
 33 34  1  0  0  0  0
 34 35  2  0  0  0  0
 35 36  1  0  0  0  0
 37 38  2  0  0  0  0
 37 39  1  0  0  0  0
 39 40  1  0  0  0  0
 40 45  1  0  0  0  0
 40 41  2  0  0  0  0
 41 42  1  0  0  0  0
 42 43  2  0  0  0  0
 43 44  1  0  0  0  0
 44 45  2  0  0  0  0
 46 47  1  0  0  0  0
 46 48  2  0  0  0  0
 48 49  1  0  0  0  0
M  ISO  5   2   2   5   2   7   2  47   2  49   2
M  CHG  2   1   1  27  -1
M  END
>  <Supplier>
www.ambinter.com

>  <Ambinter_reference>
Amb35797317

>  <MW>
585.652

$$$$
Amb35797318
 OpenBabel08272101522D

 44 46  0  0  1  0  0  0  0  0999 V2000
   -2.3532   -0.0448    0.0000 Na  0  3  0  0  0 15  0  0  0  0  0  0
    8.0103   -4.6496    0.0000 C   0  0  0  0  0  0  0  0  0  0  0  0
    7.0158   -4.5451    0.0000 C   0  0  0  0  0  0  0  0  0  0  0  0
    6.6090   -3.6315    0.0000 C   0  0  0  0  0  0  0  0  0  0  0  0
    6.4280   -5.3541    0.0000 C   0  0  0  0  0  0  0  0  0  0  0  0
    6.7370   -6.3052    0.0000 C   0  0  0  0  0  0  0  0  0  0  0  0
    7.6880   -6.6142    0.0000 C   0  0  0  0  0  0  0  0  0  0  0  0
    7.8960   -7.5923    0.0000 O   0  0  0  0  0  0  0  0  0  0  0  0
    8.4312   -5.9450    0.0000 N   0  0  0  0  0  0  0  0  0  0  0  0
    9.3822   -6.2541    0.0000 C   0  0  0  0  0  0  0  0  0  0  0  0
   10.1254   -5.5849    0.0000 C   0  0  0  0  0  0  0  0  0  0  0  0
   11.0764   -5.8939    0.0000 C   0  0  0  0  0  0  0  0  0  0  0  0
   11.2844   -6.8721    0.0000 C   0  0  0  0  0  0  0  0  0  0  0  0
   10.5412   -7.5412    0.0000 C   0  0  0  0  0  0  0  0  0  0  0  0
    9.5902   -7.2322    0.0000 C   0  0  0  0  0  0  0  0  0  0  0  0
    5.9280   -6.8929    0.0000 C   0  0  0  0  0  0  0  0  0  0  0  0
    5.9280   -7.8929    0.0000 C   0  0  0  0  0  0  0  0  0  0  0  0
    6.7940   -8.3929    0.0000 C   0  0  0  0  0  0  0  0  0  0  0  0
    6.7940   -9.3929    0.0000 C   0  0  0  0  0  0  0  0  0  0  0  0
    5.9280   -9.8929    0.0000 C   0  0  0  0  0  0  0  0  0  0  0  0
    5.0619   -9.3929    0.0000 C   0  0  0  0  0  0  0  0  0  0  0  0
    5.0619   -8.3929    0.0000 C   0  0  0  0  0  0  0  0  0  0  0  0
    5.1190   -6.3052    0.0000 C   0  0  0  0  0  0  0  0  0  0  0  0
    4.1679   -6.6142    0.0000 C   0  0  0  0  0  0  0  0  0  0  0  0
    3.9600   -7.5923    0.0000 C   0  0  0  0  0  0  0  0  0  0  0  0
    3.0089   -7.9013    0.0000 C   0  0  0  0  0  0  0  0  0  0  0  0
    2.2658   -7.2322    0.0000 C   0  0  0  0  0  0  0  0  0  0  0  0
    2.4737   -6.2541    0.0000 C   0  0  0  0  0  0  0  0  0  0  0  0
    3.4248   -5.9450    0.0000 C   0  0  0  0  0  0  0  0  0  0  0  0
    3.6327   -4.9669    0.0000 F   0  0  0  0  0  0  0  0  0  0  0  0
    5.4280   -5.3541    0.0000 N   0  0  0  0  0  0  0  0  0  0  0  0
    4.8402   -4.5451    0.0000 C   0  0  0  0  0  0  0  0  0  0  0  0
    5.2469   -3.6315    0.0000 C   0  0  0  0  0  0  0  0  0  0  0  0
    4.6591   -2.8225    0.0000 C   0  0  1  0  0  0  0  0  0  0  0  0
    4.5546   -1.8280    0.0000 H   0  0  0  0  0  0  0  0  0  0  0  0
    5.4682   -2.2347    0.0000 O   0  0  0  0  0  0  0  0  0  0  0  0
    3.6646   -2.9271    0.0000 C   0  0  0  0  0  0  0  0  0  0  0  0
    3.0768   -2.1180    0.0000 C   0  0  1  0  0  0  0  0  0  0  0  0
    2.9723   -1.1235    0.0000 H   0  0  0  0  0  0  0  0  0  0  0  0
    3.8858   -1.5302    0.0000 O   0  0  0  0  0  0  0  0  0  0  0  0
    2.0823   -2.2226    0.0000 C   0  0  0  0  0  0  0  0  0  0  0  0
    1.4945   -1.4135    0.0000 C   0  0  0  0  0  0  0  0  0  0  0  0
    0.5000   -1.5181    0.0000 O   0  5  0  0  0  0  0  0  0  0  0  0
    1.9013   -0.5000    0.0000 O   0  0  0  0  0  0  0  0  0  0  0  0
  2  3  1  0  0  0  0
  3  4  1  0  0  0  0
  3  5  1  0  0  0  0
  5 31  1  0  0  0  0
  5  6  2  0  0  0  0
  6  7  1  0  0  0  0
  6 16  1  0  0  0  0
  7  8  2  0  0  0  0
  7  9  1  0  0  0  0
  9 10  1  0  0  0  0
 10 15  1  0  0  0  0
 10 11  2  0  0  0  0
 11 12  1  0  0  0  0
 12 13  2  0  0  0  0
 13 14  1  0  0  0  0
 14 15  2  0  0  0  0
 16 17  1  0  0  0  0
 16 23  2  0  0  0  0
 17 22  1  0  0  0  0
 17 18  2  0  0  0  0
 18 19  1  0  0  0  0
 19 20  2  0  0  0  0
 20 21  1  0  0  0  0
 21 22  2  0  0  0  0
 23 24  1  0  0  0  0
 23 31  1  0  0  0  0
 24 29  1  0  0  0  0
 24 25  2  0  0  0  0
 25 26  1  0  0  0  0
 26 27  2  0  0  0  0
 27 28  1  0  0  0  0
 28 29  2  0  0  0  0
 29 30  1  0  0  0  0
 31 32  1  0  0  0  0
 32 33  1  0  0  0  0
 33 34  1  0  0  0  0
 34 35  1  1  0  0  0
 34 36  1  0  0  0  0
 34 37  1  0  0  0  0
 37 38  1  0  0  0  0
 38 39  1  1  0  0  0
 38 40  1  0  0  0  0
 38 41  1  0  0  0  0
 41 42  1  0  0  0  0
 42 43  1  0  0  0  0
 42 44  2  0  0  0  0
M  CHG  2   1   1  43  -1
M  END
>  <Supplier>
www.ambinter.com

>  <Ambinter_reference>
Amb35797318

>  <MW>
580.622

$$$$
Amb35797319
 OpenBabel08272101522D

 49 51  0  0  1  0  0  0  0  0999 V2000
    2.5929   -4.5636    0.0000 Na  0  3  0  0  0 15  0  0  0  0  0  0
    4.4372  -11.1380    0.0000 H   0  0  0  0  0  0  0  0  0  0  0  0
    4.6411  -10.1787    0.0000 C   0  0  0  0  0  0  0  0  0  0  0  0
    3.9123   -9.5224    0.0000 C   0  0  0  0  0  0  0  0  0  0  0  0
    2.9795   -9.8255    0.0000 H   0  0  0  0  0  0  0  0  0  0  0  0
    4.1162   -8.5631    0.0000 C   0  0  0  0  0  0  0  0  0  0  0  0
    3.3873   -7.9068    0.0000 H   0  0  0  0  0  0  0  0  0  0  0  0
    5.0489   -8.2600    0.0000 C   0  0  0  0  0  0  0  0  0  0  0  0
    5.4568   -6.3414    0.0000 C   0  0  0  0  0  0  0  0  0  0  0  0
    4.8005   -5.6125    0.0000 C   0  0  0  0  0  0  0  0  0  0  0  0
    5.2909   -4.7631    0.0000 C   0  0  0  0  0  0  0  0  0  0  0  0
    4.8920   -3.8672    0.0000 C   0  0  0  0  0  0  0  0  0  0  0  0
    5.4685   -3.0737    0.0000 C   0  0  0  0  0  0  0  0  0  0  0  0
    3.9166   -3.7646    0.0000 C   0  0  0  0  0  0  0  0  0  0  0  0
    6.2502   -4.9670    0.0000 N   0  0  0  0  0  0  0  0  0  0  0  0
    6.9791   -4.3108    0.0000 C   0  0  0  0  0  0  0  0  0  0  0  0
    6.7752   -3.3514    0.0000 C   0  0  0  0  0  0  0  0  0  0  0  0
    7.5040   -2.6952    0.0000 C   0  0  1  0  0  0  0  0  0  0  0  0
    8.4634   -2.4913    0.0000 H   0  0  0  0  0  0  0  0  0  0  0  0
    8.1603   -3.4240    0.0000 O   0  0  0  0  0  0  0  0  0  0  0  0
    7.3001   -1.7358    0.0000 C   0  0  0  0  0  0  0  0  0  0  0  0
    6.3673   -1.4328    0.0000 C   0  0  1  0  0  0  0  0  0  0  0  0
    5.7111   -0.7039    0.0000 H   0  0  0  0  0  0  0  0  0  0  0  0
    6.6704   -0.5000    0.0000 O   0  0  0  0  0  0  0  0  0  0  0  0
    5.6385   -2.0890    0.0000 C   0  0  0  0  0  0  0  0  0  0  0  0
    4.7057   -1.7860    0.0000 C   0  0  0  0  0  0  0  0  0  0  0  0
    3.9769   -2.4422    0.0000 O   0  5  0  0  0  0  0  0  0  0  0  0
    4.5018   -0.8266    0.0000 O   0  0  0  0  0  0  0  0  0  0  0  0
    6.3527   -5.9424    0.0000 C   0  0  0  0  0  0  0  0  0  0  0  0
    7.2021   -6.4328    0.0000 C   0  0  0  0  0  0  0  0  0  0  0  0
    8.0515   -5.9424    0.0000 C   0  0  0  0  0  0  0  0  0  0  0  0
    8.9009   -6.4328    0.0000 C   0  0  0  0  0  0  0  0  0  0  0  0
    8.9009   -7.4136    0.0000 C   0  0  0  0  0  0  0  0  0  0  0  0
    8.0515   -7.9040    0.0000 C   0  0  0  0  0  0  0  0  0  0  0  0
    8.0515   -8.8847    0.0000 F   0  0  0  0  0  0  0  0  0  0  0  0
    7.2021   -7.4136    0.0000 C   0  0  0  0  0  0  0  0  0  0  0  0
    3.8251   -5.7150    0.0000 C   0  0  0  0  0  0  0  0  0  0  0  0
    3.2486   -4.9216    0.0000 O   0  0  0  0  0  0  0  0  0  0  0  0
    3.4262   -6.6110    0.0000 N   0  0  0  0  0  0  0  0  0  0  0  0
    2.4508   -6.7135    0.0000 C   0  0  0  0  0  0  0  0  0  0  0  0
    2.0519   -7.6095    0.0000 C   0  0  0  0  0  0  0  0  0  0  0  0
    1.0765   -7.7120    0.0000 C   0  0  0  0  0  0  0  0  0  0  0  0
    0.5000   -6.9185    0.0000 C   0  0  0  0  0  0  0  0  0  0  0  0
    0.8989   -6.0226    0.0000 C   0  0  0  0  0  0  0  0  0  0  0  0
    1.8743   -5.9201    0.0000 C   0  0  0  0  0  0  0  0  0  0  0  0
    5.7778   -8.9163    0.0000 C   0  0  0  0  0  0  0  0  0  0  0  0
    6.7106   -8.6132    0.0000 H   0  0  0  0  0  0  0  0  0  0  0  0
    5.5739   -9.8756    0.0000 C   0  0  0  0  0  0  0  0  0  0  0  0
    6.3027  -10.5319    0.0000 H   0  0  0  0  0  0  0  0  0  0  0  0
  2  3  1  0  0  0  0
  3 48  1  0  0  0  0
  3  4  2  0  0  0  0
  4  5  1  0  0  0  0
  4  6  1  0  0  0  0
  6  7  1  0  0  0  0
  6  8  2  0  0  0  0
  8  9  1  0  0  0  0
  8 46  1  0  0  0  0
  9 29  2  0  0  0  0
  9 10  1  0  0  0  0
 10 11  2  0  0  0  0
 10 37  1  0  0  0  0
 11 12  1  0  0  0  0
 11 15  1  0  0  0  0
 12 13  1  0  0  0  0
 12 14  1  0  0  0  0
 15 16  1  0  0  0  0
 15 29  1  0  0  0  0
 16 17  1  0  0  0  0
 17 18  1  0  0  0  0
 18 19  1  1  0  0  0
 18 20  1  0  0  0  0
 18 21  1  0  0  0  0
 21 22  1  0  0  0  0
 22 23  1  1  0  0  0
 22 24  1  0  0  0  0
 22 25  1  0  0  0  0
 25 26  1  0  0  0  0
 26 27  1  0  0  0  0
 26 28  2  0  0  0  0
 29 30  1  0  0  0  0
 30 36  1  0  0  0  0
 30 31  2  0  0  0  0
 31 32  1  0  0  0  0
 32 33  2  0  0  0  0
 33 34  1  0  0  0  0
 34 35  1  0  0  0  0
 34 36  2  0  0  0  0
 37 38  2  0  0  0  0
 37 39  1  0  0  0  0
 39 40  1  0  0  0  0
 40 45  1  0  0  0  0
 40 41  2  0  0  0  0
 41 42  1  0  0  0  0
 42 43  2  0  0  0  0
 43 44  1  0  0  0  0
 44 45  2  0  0  0  0
 46 47  1  0  0  0  0
 46 48  2  0  0  0  0
 48 49  1  0  0  0  0
M  ISO  5   2   2   5   2   7   2  47   2  49   2
M  CHG  2   1   1  27  -1
M  END
>  <Supplier>
www.ambinter.com

>  <Ambinter_reference>
Amb35797319

>  <MW>
585.652

$$$$
Amb35797320
 OpenBabel08272101522D

 48 52  0  0  1  0  0  0  0  0999 V2000
    2.2321   -2.8660    0.0000 C   0  0  0  0  0  0  0  0  0  0  0  0
    1.7321   -2.0000    0.0000 C   0  0  0  0  0  0  0  0  0  0  0  0
    1.2321   -2.8660    0.0000 C   0  0  0  0  0  0  0  0  0  0  0  0
    2.5981   -1.5000    0.0000 C   0  0  0  0  0  0  0  0  0  0  0  0
    0.8660   -1.5000    0.0000 O   0  0  0  0  0  0  0  0  0  0  0  0
   -0.0000   -2.0000    0.0000 C   0  0  0  0  0  0  0  0  0  0  0  0
   -0.0000   -3.0000    0.0000 O   0  0  0  0  0  0  0  0  0  0  0  0
   -0.8660   -1.5000    0.0000 C   0  0  0  0  0  0  0  0  0  0  0  0
   -0.8660   -0.5000    0.0000 C   0  0  3  0  0  0  0  0  0  0  0  0
   -1.7321    0.0000    0.0000 C   0  0  0  0  0  0  0  0  0  0  0  0
   -1.7321    1.0000    0.0000 C   0  0  3  0  0  0  0  0  0  0  0  0
   -2.5981    1.5000    0.0000 C   0  0  0  0  0  0  0  0  0  0  0  0
   -2.5981    2.5000    0.0000 C   0  0  0  0  0  0  0  0  0  0  0  0
   -3.4641    3.0000    0.0000 N   0  0  0  0  0  0  0  0  0  0  0  0
   -4.3776    2.5933    0.0000 C   0  0  0  0  0  0  0  0  0  0  0  0
   -4.5856    1.6151    0.0000 C   0  0  0  0  0  0  0  0  0  0  0  0
   -5.5366    1.3061    0.0000 C   0  0  0  0  0  0  0  0  0  0  0  0
   -3.8424    0.9460    0.0000 C   0  0  0  0  0  0  0  0  0  0  0  0
   -5.0468    3.3364    0.0000 C   0  0  0  0  0  0  0  0  0  0  0  0
   -4.5468    4.2024    0.0000 C   0  0  0  0  0  0  0  0  0  0  0  0
   -3.5686    3.9945    0.0000 C   0  0  0  0  0  0  0  0  0  0  0  0
   -2.8255    4.6637    0.0000 C   0  0  0  0  0  0  0  0  0  0  0  0
   -3.0334    5.6418    0.0000 C   0  0  0  0  0  0  0  0  0  0  0  0
   -2.2903    6.3109    0.0000 C   0  0  0  0  0  0  0  0  0  0  0  0
   -1.3392    6.0019    0.0000 C   0  0  0  0  0  0  0  0  0  0  0  0
   -1.1313    5.0238    0.0000 C   0  0  0  0  0  0  0  0  0  0  0  0
   -1.8744    4.3546    0.0000 C   0  0  0  0  0  0  0  0  0  0  0  0
   -1.6665    3.3765    0.0000 F   0  0  0  0  0  0  0  0  0  0  0  0
   -4.9535    5.1160    0.0000 C   0  0  0  0  0  0  0  0  0  0  0  0
   -5.9480    5.2205    0.0000 C   0  0  0  0  0  0  0  0  0  0  0  0
   -6.3548    6.1341    0.0000 C   0  0  0  0  0  0  0  0  0  0  0  0
   -5.7670    6.9431    0.0000 C   0  0  0  0  0  0  0  0  0  0  0  0
   -4.7725    6.8385    0.0000 C   0  0  0  0  0  0  0  0  0  0  0  0
   -4.3657    5.9250    0.0000 C   0  0  0  0  0  0  0  0  0  0  0  0
   -6.0413    3.2319    0.0000 C   0  0  0  0  0  0  0  0  0  0  0  0
   -6.6291    4.0409    0.0000 O   0  0  0  0  0  0  0  0  0  0  0  0
   -6.4480    2.3183    0.0000 N   0  0  0  0  0  0  0  0  0  0  0  0
   -7.4426    2.2138    0.0000 C   0  0  0  0  0  0  0  0  0  0  0  0
   -7.8493    1.3003    0.0000 C   0  0  0  0  0  0  0  0  0  0  0  0
   -8.8438    1.1957    0.0000 C   0  0  0  0  0  0  0  0  0  0  0  0
   -9.4316    2.0047    0.0000 C   0  0  0  0  0  0  0  0  0  0  0  0
   -9.0249    2.9183    0.0000 C   0  0  0  0  0  0  0  0  0  0  0  0
   -8.0303    3.0228    0.0000 C   0  0  0  0  0  0  0  0  0  0  0  0
   -0.8660    1.5000    0.0000 O   0  0  0  0  0  0  0  0  0  0  0  0
    0.0000    1.0000    0.0000 C   0  0  0  0  0  0  0  0  0  0  0  0
    1.0000    1.0000    0.0000 C   0  0  0  0  0  0  0  0  0  0  0  0
    0.5000    1.8660    0.0000 C   0  0  0  0  0  0  0  0  0  0  0  0
    0.0000   -0.0000    0.0000 O   0  0  0  0  0  0  0  0  0  0  0  0
  1  2  1  0  0  0  0
  2  3  1  0  0  0  0
  2  4  1  0  0  0  0
  2  5  1  0  0  0  0
  5  6  1  0  0  0  0
  6  7  2  0  0  0  0
  6  8  1  0  0  0  0
  8  9  1  0  0  0  0
  9 48  1  0  0  0  0
  9 10  1  0  0  0  0
 10 11  1  0  0  0  0
 11 12  1  0  0  0  0
 11 44  1  0  0  0  0
 12 13  1  0  0  0  0
 13 14  1  0  0  0  0
 14 21  1  0  0  0  0
 14 15  1  0  0  0  0
 15 16  1  0  0  0  0
 15 19  2  0  0  0  0
 16 17  1  0  0  0  0
 16 18  1  0  0  0  0
 19 20  1  0  0  0  0
 19 35  1  0  0  0  0
 20 21  2  0  0  0  0
 20 29  1  0  0  0  0
 21 22  1  0  0  0  0
 22 27  1  0  0  0  0
 22 23  2  0  0  0  0
 23 24  1  0  0  0  0
 24 25  2  0  0  0  0
 25 26  1  0  0  0  0
 26 27  2  0  0  0  0
 27 28  1  0  0  0  0
 29 34  1  0  0  0  0
 29 30  2  0  0  0  0
 30 31  1  0  0  0  0
 31 32  2  0  0  0  0
 32 33  1  0  0  0  0
 33 34  2  0  0  0  0
 35 36  2  0  0  0  0
 35 37  1  0  0  0  0
 37 38  1  0  0  0  0
 38 43  1  0  0  0  0
 38 39  2  0  0  0  0
 39 40  1  0  0  0  0
 40 41  2  0  0  0  0
 41 42  1  0  0  0  0
 42 43  2  0  0  0  0
 44 45  1  0  0  0  0
 45 46  1  0  0  0  0
 45 47  1  0  0  0  0
 45 48  1  0  0  0  0
M  END
>  <Supplier>
www.ambinter.com

>  <Ambinter_reference>
Amb35797320

>  <MW>
654.81

$$$$
Amb35797616
 OpenBabel08272101522D

 50 54  0  0  1  0  0  0  0  0999 V2000
    0.1109   -3.8966    0.0000 C   0  0  0  0  0  0  0  0  0  0  0  0
   -0.5184   -3.1195    0.0000 C   0  0  0  0  0  0  0  0  0  0  0  0
    0.4693   -2.9631    0.0000 C   0  0  0  0  0  0  0  0  0  0  0  0
   -1.2955   -3.7488    0.0000 C   0  0  0  0  0  0  0  0  0  0  0  0
   -0.6748   -2.1318    0.0000 O   0  0  0  0  0  0  0  0  0  0  0  0
   -1.6084   -1.7734    0.0000 C   0  0  0  0  0  0  0  0  0  0  0  0
   -2.3855   -2.4028    0.0000 O   0  0  0  0  0  0  0  0  0  0  0  0
   -1.7648   -0.7858    0.0000 C   0  0  0  0  0  0  0  0  0  0  0  0
   -0.9877   -0.1564    0.0000 C   0  0  2  0  0  0  0  0  0  0  0  0
   -0.8313   -1.1441    0.0000 H   0  0  0  0  0  0  0  0  0  0  0  0
   -1.6170    0.6207    0.0000 C   0  0  0  0  0  0  0  0  0  0  0  0
   -1.2586    1.5543    0.0000 C   0  0  2  0  0  0  0  0  0  0  0  0
   -0.7815    2.4331    0.0000 H   0  0  0  0  0  0  0  0  0  0  0  0
   -2.2532    1.6588    0.0000 C   0  0  0  0  0  0  0  0  0  0  0  0
   -2.6599    2.5724    0.0000 C   0  0  0  0  0  0  0  0  0  0  0  0
   -3.6544    2.6769    0.0000 N   0  0  0  0  0  0  0  0  0  0  0  0
   -4.3236    1.9337    0.0000 C   0  0  0  0  0  0  0  0  0  0  0  0
   -4.1156    0.9556    0.0000 C   0  0  0  0  0  0  0  0  0  0  0  0
   -4.8588    0.2865    0.0000 C   0  0  0  0  0  0  0  0  0  0  0  0
   -3.1646    0.6466    0.0000 C   0  0  0  0  0  0  0  0  0  0  0  0
   -5.2371    2.3405    0.0000 C   0  0  0  0  0  0  0  0  0  0  0  0
   -5.1326    3.3350    0.0000 C   0  0  0  0  0  0  0  0  0  0  0  0
   -5.8757    4.0041    0.0000 C   0  0  0  0  0  0  0  0  0  0  0  0
   -6.8268    3.6951    0.0000 C   0  0  0  0  0  0  0  0  0  0  0  0
   -7.5699    4.3643    0.0000 C   0  0  0  0  0  0  0  0  0  0  0  0
   -7.3620    5.3424    0.0000 C   0  0  0  0  0  0  0  0  0  0  0  0
   -6.4109    5.6514    0.0000 C   0  0  0  0  0  0  0  0  0  0  0  0
   -5.6678    4.9823    0.0000 C   0  0  0  0  0  0  0  0  0  0  0  0
   -4.1544    3.5429    0.0000 C   0  0  0  0  0  0  0  0  0  0  0  0
   -3.7477    4.4565    0.0000 C   0  0  0  0  0  0  0  0  0  0  0  0
   -4.3355    5.2655    0.0000 C   0  0  0  0  0  0  0  0  0  0  0  0
   -3.9287    6.1790    0.0000 C   0  0  0  0  0  0  0  0  0  0  0  0
   -4.5165    6.9880    0.0000 F   0  0  0  0  0  0  0  0  0  0  0  0
   -2.9342    6.2836    0.0000 C   0  0  0  0  0  0  0  0  0  0  0  0
   -2.3464    5.4745    0.0000 C   0  0  0  0  0  0  0  0  0  0  0  0
   -2.7532    4.5610    0.0000 C   0  0  0  0  0  0  0  0  0  0  0  0
   -6.1031    1.8405    0.0000 C   0  0  0  0  0  0  0  0  0  0  0  0
   -6.9691    2.3405    0.0000 O   0  0  0  0  0  0  0  0  0  0  0  0
   -6.1031    0.8405    0.0000 N   0  0  0  0  0  0  0  0  0  0  0  0
   -6.9691    0.3405    0.0000 C   0  0  0  0  0  0  0  0  0  0  0  0
   -6.9691   -0.6595    0.0000 C   0  0  0  0  0  0  0  0  0  0  0  0
   -7.8352   -1.1595    0.0000 C   0  0  0  0  0  0  0  0  0  0  0  0
   -8.7012   -0.6595    0.0000 C   0  0  0  0  0  0  0  0  0  0  0  0
   -8.7012    0.3405    0.0000 C   0  0  0  0  0  0  0  0  0  0  0  0
   -7.8352    0.8405    0.0000 C   0  0  0  0  0  0  0  0  0  0  0  0
   -0.2710    1.7107    0.0000 O   0  0  0  0  0  0  0  0  0  0  0  0
    0.3584    0.9336    0.0000 C   0  0  0  0  0  0  0  0  0  0  0  0
    1.2919    0.5752    0.0000 C   0  0  0  0  0  0  0  0  0  0  0  0
    1.1355    1.5629    0.0000 C   0  0  0  0  0  0  0  0  0  0  0  0
    0.0000   -0.0000    0.0000 O   0  0  0  0  0  0  0  0  0  0  0  0
  1  2  1  0  0  0  0
  2  3  1  0  0  0  0
  2  4  1  0  0  0  0
  2  5  1  0  0  0  0
  5  6  1  0  0  0  0
  6  7  2  0  0  0  0
  6  8  1  0  0  0  0
  8  9  1  0  0  0  0
  9 10  1  1  0  0  0
  9 50  1  0  0  0  0
  9 11  1  0  0  0  0
 11 12  1  0  0  0  0
 12 13  1  1  0  0  0
 12 14  1  0  0  0  0
 12 46  1  0  0  0  0
 14 15  1  0  0  0  0
 15 16  1  0  0  0  0
 16 29  1  0  0  0  0
 16 17  1  0  0  0  0
 17 18  1  0  0  0  0
 17 21  2  0  0  0  0
 18 19  1  0  0  0  0
 18 20  1  0  0  0  0
 21 22  1  0  0  0  0
 21 37  1  0  0  0  0
 22 23  1  0  0  0  0
 22 29  2  0  0  0  0
 23 28  1  0  0  0  0
 23 24  2  0  0  0  0
 24 25  1  0  0  0  0
 25 26  2  0  0  0  0
 26 27  1  0  0  0  0
 27 28  2  0  0  0  0
 29 30  1  0  0  0  0
 30 36  1  0  0  0  0
 30 31  2  0  0  0  0
 31 32  1  0  0  0  0
 32 33  1  0  0  0  0
 32 34  2  0  0  0  0
 34 35  1  0  0  0  0
 35 36  2  0  0  0  0
 37 38  2  0  0  0  0
 37 39  1  0  0  0  0
 39 40  1  0  0  0  0
 40 45  1  0  0  0  0
 40 41  2  0  0  0  0
 41 42  1  0  0  0  0
 42 43  2  0  0  0  0
 43 44  1  0  0  0  0
 44 45  2  0  0  0  0
 46 47  1  0  0  0  0
 47 48  1  0  0  0  0
 47 49  1  0  0  0  0
 47 50  1  0  0  0  0
M  END
>  <Supplier>
www.ambinter.com

>  <Ambinter_reference>
Amb35797616

>  <MW>
654.81

$$$$
Amb35803606
 OpenBabel08272101522D

 58 62  0  0  1  0  0  0  0  0999 V2000
    6.1470    0.4028    0.0000 C   0  0  0  0  0  0  0  0  0  0  0  0
    7.0380    0.8568    0.0000 C   0  0  0  0  0  0  0  0  0  0  0  0
    7.8767    0.3122    0.0000 C   0  0  0  0  0  0  0  0  0  0  0  0
    7.0903    1.8554    0.0000 C   0  0  0  0  0  0  0  0  0  0  0  0
    7.9290    2.4001    0.0000 C   0  0  0  0  0  0  0  0  0  0  0  0
    8.8626    2.0417    0.0000 C   0  0  0  0  0  0  0  0  0  0  0  0
    9.6397    2.6710    0.0000 O   0  0  0  0  0  0  0  0  0  0  0  0
    9.0190    1.0540    0.0000 N   0  0  0  0  0  0  0  0  0  0  0  0
    9.9526    0.6957    0.0000 C   0  0  0  0  0  0  0  0  0  0  0  0
   10.1090   -0.2920    0.0000 C   0  0  0  0  0  0  0  0  0  0  0  0
   11.0426   -0.6504    0.0000 C   0  0  0  0  0  0  0  0  0  0  0  0
   11.8198   -0.0211    0.0000 C   0  0  0  0  0  0  0  0  0  0  0  0
   12.7533   -0.3794    0.0000 O   0  0  0  0  0  0  0  0  0  0  0  0
   11.6633    0.9666    0.0000 C   0  0  0  0  0  0  0  0  0  0  0  0
   10.7298    1.3250    0.0000 C   0  0  0  0  0  0  0  0  0  0  0  0
    7.6702    3.3660    0.0000 C   0  0  0  0  0  0  0  0  0  0  0  0
    8.2995    4.1432    0.0000 C   0  0  0  0  0  0  0  0  0  0  0  0
    9.2872    3.9867    0.0000 C   0  0  0  0  0  0  0  0  0  0  0  0
    9.9165    4.7639    0.0000 C   0  0  0  0  0  0  0  0  0  0  0  0
    9.5582    5.6974    0.0000 C   0  0  0  0  0  0  0  0  0  0  0  0
    8.5705    5.8539    0.0000 C   0  0  0  0  0  0  0  0  0  0  0  0
    7.9411    5.0767    0.0000 C   0  0  0  0  0  0  0  0  0  0  0  0
    6.6716    3.4183    0.0000 C   0  0  0  0  0  0  0  0  0  0  0  0
    6.1269    4.2570    0.0000 C   0  0  0  0  0  0  0  0  0  0  0  0
    6.5809    5.1480    0.0000 C   0  0  0  0  0  0  0  0  0  0  0  0
    6.0363    5.9867    0.0000 C   0  0  0  0  0  0  0  0  0  0  0  0
    5.0376    5.9344    0.0000 C   0  0  0  0  0  0  0  0  0  0  0  0
    4.4930    6.7730    0.0000 F   0  0  0  0  0  0  0  0  0  0  0  0
    4.5837    5.0434    0.0000 C   0  0  0  0  0  0  0  0  0  0  0  0
    5.1283    4.2047    0.0000 C   0  0  0  0  0  0  0  0  0  0  0  0
    6.3132    2.4848    0.0000 N   0  0  0  0  0  0  0  0  0  0  0  0
    5.3473    2.2259    0.0000 C   0  0  0  0  0  0  0  0  0  0  0  0
    5.0884    1.2600    0.0000 C   0  0  0  0  0  0  0  0  0  0  0  0
    4.1225    1.0012    0.0000 C   0  0  1  0  0  0  0  0  0  0  0  0
    3.1566    1.2600    0.0000 H   0  0  0  0  0  0  0  0  0  0  0  0
    3.8637    1.9671    0.0000 O   0  0  0  0  0  0  0  0  0  0  0  0
    3.8637    0.0353    0.0000 C   0  0  0  0  0  0  0  0  0  0  0  0
    2.8978   -0.2235    0.0000 C   0  0  1  0  0  0  0  0  0  0  0  0
    1.9319    0.0353    0.0000 H   0  0  0  0  0  0  0  0  0  0  0  0
    2.6390    0.7424    0.0000 O   0  0  0  0  0  0  0  0  0  0  0  0
    2.6390   -1.1895    0.0000 C   0  0  0  0  0  0  0  0  0  0  0  0
    1.6730   -1.4483    0.0000 C   0  0  0  0  0  0  0  0  0  0  0  0
    1.4142   -2.4142    0.0000 O   0  0  0  0  0  0  0  0  0  0  0  0
    0.9659   -0.7412    0.0000 O   0  0  0  0  0  0  0  0  0  0  0  0
   -0.0000   -1.0000    0.0000 C   0  0  2  0  0  0  0  0  0  0  0  0
   -0.1305   -1.9914    0.0000 H   0  0  0  0  0  0  0  0  0  0  0  0
   -0.8660   -1.5000    0.0000 O   0  0  0  0  0  0  0  0  0  0  0  0
   -1.7321   -1.0000    0.0000 C   0  0  3  0  0  0  0  0  0  0  0  0
   -1.7321    0.0000    0.0000 C   0  0  2  0  0  0  0  0  0  0  0  0
   -2.2321    0.8660    0.0000 H   0  0  0  0  0  0  0  0  0  0  0  0
   -2.7321    0.0000    0.0000 O   0  0  0  0  0  0  0  0  0  0  0  0
   -0.8660    0.5000    0.0000 C   0  0  3  0  0  0  0  0  0  0  0  0
   -0.8660    1.5000    0.0000 O   0  0  0  0  0  0  0  0  0  0  0  0
    0.0000    0.0000    0.0000 C   0  0  3  0  0  0  0  0  0  0  0  0
    0.8660    0.5000    0.0000 O   0  0  0  0  0  0  0  0  0  0  0  0
   -2.5981   -1.5000    0.0000 C   0  0  0  0  0  0  0  0  0  0  0  0
   -3.4641   -1.0000    0.0000 O   0  0  0  0  0  0  0  0  0  0  0  0
   -2.5981   -2.5000    0.0000 O   0  0  0  0  0  0  0  0  0  0  0  0
  1  2  1  0  0  0  0
  2  3  1  0  0  0  0
  2  4  1  0  0  0  0
  4 31  1  0  0  0  0
  4  5  2  0  0  0  0
  5  6  1  0  0  0  0
  5 16  1  0  0  0  0
  6  7  2  0  0  0  0
  6  8  1  0  0  0  0
  8  9  1  0  0  0  0
  9 15  1  0  0  0  0
  9 10  2  0  0  0  0
 10 11  1  0  0  0  0
 11 12  2  0  0  0  0
 12 13  1  0  0  0  0
 12 14  1  0  0  0  0
 14 15  2  0  0  0  0
 16 17  1  0  0  0  0
 16 23  2  0  0  0  0
 17 22  1  0  0  0  0
 17 18  2  0  0  0  0
 18 19  1  0  0  0  0
 19 20  2  0  0  0  0
 20 21  1  0  0  0  0
 21 22  2  0  0  0  0
 23 24  1  0  0  0  0
 23 31  1  0  0  0  0
 24 30  1  0  0  0  0
 24 25  2  0  0  0  0
 25 26  1  0  0  0  0
 26 27  2  0  0  0  0
 27 28  1  0  0  0  0
 27 29  1  0  0  0  0
 29 30  2  0  0  0  0
 31 32  1  0  0  0  0
 32 33  1  0  0  0  0
 33 34  1  0  0  0  0
 34 35  1  1  0  0  0
 34 36  1  0  0  0  0
 34 37  1  0  0  0  0
 37 38  1  0  0  0  0
 38 39  1  1  0  0  0
 38 40  1  0  0  0  0
 38 41  1  0  0  0  0
 41 42  1  0  0  0  0
 42 43  2  0  0  0  0
 42 44  1  0  0  0  0
 44 45  1  0  0  0  0
 45 46  1  1  0  0  0
 45 54  1  0  0  0  0
 45 47  1  0  0  0  0
 47 48  1  0  0  0  0
 48 49  1  0  0  0  0
 48 56  1  0  0  0  0
 49 50  1  1  0  0  0
 49 51  1  0  0  0  0
 49 52  1  0  0  0  0
 52 53  1  0  0  0  0
 52 54  1  0  0  0  0
 54 55  1  0  0  0  0
 56 57  1  0  0  0  0
 56 58  2  0  0  0  0
M  END
>  <Supplier>
www.ambinter.com

>  <Ambinter_reference>
Amb35803606

>  <MW>
750.763

$$$$
Amb35805879
 OpenBabel08272101522D

 63 67  0  0  1  0  0  0  0  0999 V2000
   -1.5998   -4.1676    0.0000 C   0  0  0  0  0  0  0  0  0  0  0  0
   -2.2291   -3.3905    0.0000 C   0  0  0  0  0  0  0  0  0  0  0  0
   -1.2414   -3.2340    0.0000 C   0  0  0  0  0  0  0  0  0  0  0  0
   -3.0063   -4.0198    0.0000 C   0  0  0  0  0  0  0  0  0  0  0  0
   -2.3855   -2.4028    0.0000 O   0  0  0  0  0  0  0  0  0  0  0  0
   -1.6084   -1.7734    0.0000 C   0  0  0  0  0  0  0  0  0  0  0  0
   -0.6748   -2.1318    0.0000 O   0  0  0  0  0  0  0  0  0  0  0  0
   -1.7648   -0.7858    0.0000 C   0  0  0  0  0  0  0  0  0  0  0  0
   -0.9877   -0.1564    0.0000 C   0  0  2  0  0  0  0  0  0  0  0  0
   -0.8313   -1.1441    0.0000 H   0  0  0  0  0  0  0  0  0  0  0  0
   -1.6170    0.6207    0.0000 C   0  0  0  0  0  0  0  0  0  0  0  0
   -1.2586    1.5543    0.0000 C   0  0  2  0  0  0  0  0  0  0  0  0
   -0.7815    2.4331    0.0000 H   0  0  0  0  0  0  0  0  0  0  0  0
   -2.2532    1.6588    0.0000 C   0  0  0  0  0  0  0  0  0  0  0  0
   -2.6599    2.5724    0.0000 C   0  0  0  0  0  0  0  0  0  0  0  0
   -3.6544    2.6769    0.0000 C   0  0  0  0  0  0  0  0  0  0  0  0
   -4.2422    1.8679    0.0000 C   0  0  0  0  0  0  0  0  0  0  0  0
   -3.8355    0.9543    0.0000 O   0  0  0  0  0  0  0  0  0  0  0  0
   -5.2367    1.9724    0.0000 C   0  0  0  0  0  0  0  0  0  0  0  0
   -5.8245    1.1634    0.0000 C   0  0  2  0  0  0  0  0  0  0  0  0
   -5.0155    0.5756    0.0000 H   0  0  0  0  0  0  0  0  0  0  0  0
   -5.9290    0.1689    0.0000 O   0  0  0  0  0  0  0  0  0  0  0  0
   -6.8190    1.2679    0.0000 C   0  0  0  0  0  0  0  0  0  0  0  0
   -7.2258    2.1815    0.0000 C   0  0  2  0  0  0  0  0  0  0  0  0
   -6.3122    2.5882    0.0000 H   0  0  0  0  0  0  0  0  0  0  0  0
   -7.1212    3.1760    0.0000 O   0  0  0  0  0  0  0  0  0  0  0  0
   -8.2203    2.2860    0.0000 C   0  0  0  0  0  0  0  0  0  0  0  0
   -8.8081    1.4770    0.0000 C   0  0  0  0  0  0  0  0  0  0  0  0
   -9.8026    1.5815    0.0000 N   0  0  0  0  0  0  0  0  0  0  0  0
  -10.4717    0.8384    0.0000 C   0  0  0  0  0  0  0  0  0  0  0  0
  -10.2638   -0.1398    0.0000 C   0  0  0  0  0  0  0  0  0  0  0  0
  -11.0070   -0.8089    0.0000 C   0  0  0  0  0  0  0  0  0  0  0  0
   -9.3128   -0.4488    0.0000 C   0  0  0  0  0  0  0  0  0  0  0  0
  -11.3853    1.2451    0.0000 C   0  0  0  0  0  0  0  0  0  0  0  0
  -11.2807    2.2396    0.0000 C   0  0  0  0  0  0  0  0  0  0  0  0
  -10.3026    2.4475    0.0000 C   0  0  0  0  0  0  0  0  0  0  0  0
   -9.8959    3.3611    0.0000 C   0  0  0  0  0  0  0  0  0  0  0  0
  -10.4836    4.1701    0.0000 C   0  0  0  0  0  0  0  0  0  0  0  0
  -10.0769    5.0836    0.0000 C   0  0  0  0  0  0  0  0  0  0  0  0
   -9.0824    5.1882    0.0000 C   0  0  0  0  0  0  0  0  0  0  0  0
   -8.6757    6.1017    0.0000 F   0  0  0  0  0  0  0  0  0  0  0  0
   -8.4946    4.3791    0.0000 C   0  0  0  0  0  0  0  0  0  0  0  0
   -8.9013    3.4656    0.0000 C   0  0  0  0  0  0  0  0  0  0  0  0
  -12.0239    2.9087    0.0000 C   0  0  0  0  0  0  0  0  0  0  0  0
  -12.9750    2.5997    0.0000 C   0  0  0  0  0  0  0  0  0  0  0  0
  -13.7181    3.2689    0.0000 C   0  0  0  0  0  0  0  0  0  0  0  0
  -13.5102    4.2470    0.0000 C   0  0  0  0  0  0  0  0  0  0  0  0
  -12.5591    4.5560    0.0000 C   0  0  0  0  0  0  0  0  0  0  0  0
  -11.8160    3.8869    0.0000 C   0  0  0  0  0  0  0  0  0  0  0  0
  -12.2513    0.7451    0.0000 C   0  0  0  0  0  0  0  0  0  0  0  0
  -13.1173    1.2451    0.0000 O   0  0  0  0  0  0  0  0  0  0  0  0
  -12.2513   -0.2549    0.0000 N   0  0  0  0  0  0  0  0  0  0  0  0
  -13.1173   -0.7549    0.0000 C   0  0  0  0  0  0  0  0  0  0  0  0
  -13.9834   -0.2549    0.0000 C   0  0  0  0  0  0  0  0  0  0  0  0
  -14.8494   -0.7549    0.0000 C   0  0  0  0  0  0  0  0  0  0  0  0
  -14.8494   -1.7549    0.0000 C   0  0  0  0  0  0  0  0  0  0  0  0
  -13.9834   -2.2549    0.0000 C   0  0  0  0  0  0  0  0  0  0  0  0
  -13.1173   -1.7549    0.0000 C   0  0  0  0  0  0  0  0  0  0  0  0
   -0.2710    1.7107    0.0000 O   0  0  0  0  0  0  0  0  0  0  0  0
    0.3584    0.9336    0.0000 C   0  0  0  0  0  0  0  0  0  0  0  0
    1.2919    0.5752    0.0000 C   0  0  0  0  0  0  0  0  0  0  0  0
    1.1355    1.5629    0.0000 C   0  0  0  0  0  0  0  0  0  0  0  0
    0.0000   -0.0000    0.0000 O   0  0  0  0  0  0  0  0  0  0  0  0
  1  2  1  0  0  0  0
  2  3  1  0  0  0  0
  2  4  1  0  0  0  0
  2  5  1  0  0  0  0
  5  6  1  0  0  0  0
  6  7  2  0  0  0  0
  6  8  1  0  0  0  0
  8  9  1  0  0  0  0
  9 10  1  1  0  0  0
  9 63  1  0  0  0  0
  9 11  1  0  0  0  0
 11 12  1  0  0  0  0
 12 13  1  1  0  0  0
 12 14  1  0  0  0  0
 12 59  1  0  0  0  0
 14 15  1  0  0  0  0
 15 16  1  0  0  0  0
 16 17  1  0  0  0  0
 17 18  2  0  0  0  0
 17 19  1  0  0  0  0
 19 20  1  0  0  0  0
 20 21  1  1  0  0  0
 20 22  1  0  0  0  0
 20 23  1  0  0  0  0
 23 24  1  0  0  0  0
 24 25  1  6  0  0  0
 24 26  1  0  0  0  0
 24 27  1  0  0  0  0
 27 28  1  0  0  0  0
 28 29  1  0  0  0  0
 29 36  1  0  0  0  0
 29 30  1  0  0  0  0
 30 31  1  0  0  0  0
 30 34  2  0  0  0  0
 31 32  1  0  0  0  0
 31 33  1  0  0  0  0
 34 35  1  0  0  0  0
 34 50  1  0  0  0  0
 35 36  2  0  0  0  0
 35 44  1  0  0  0  0
 36 37  1  0  0  0  0
 37 43  1  0  0  0  0
 37 38  2  0  0  0  0
 38 39  1  0  0  0  0
 39 40  2  0  0  0  0
 40 41  1  0  0  0  0
 40 42  1  0  0  0  0
 42 43  2  0  0  0  0
 44 49  1  0  0  0  0
 44 45  2  0  0  0  0
 45 46  1  0  0  0  0
 46 47  2  0  0  0  0
 47 48  1  0  0  0  0
 48 49  2  0  0  0  0
 50 51  2  0  0  0  0
 50 52  1  0  0  0  0
 52 53  1  0  0  0  0
 53 58  1  0  0  0  0
 53 54  2  0  0  0  0
 54 55  1  0  0  0  0
 55 56  2  0  0  0  0
 56 57  1  0  0  0  0
 57 58  2  0  0  0  0
 59 60  1  0  0  0  0
 60 61  1  0  0  0  0
 60 62  1  0  0  0  0
 60 63  1  0  0  0  0
M  END
>  <Supplier>
www.ambinter.com

>  <Ambinter_reference>
Amb35805879

>  <MW>
813.005

$$$$
Amb35808060
 OpenBabel08272101522D

 46 47  0  0  1  0  0  0  0  0999 V2000
   11.4696   -0.5000    0.0000 Na  0  3  0  0  0 15  0  0  0  0  0  0
   -2.1976    0.0304    0.0000 Na  0  3  0  0  0 15  0  0  0  0  0  0
    3.7741   -5.7433    0.0000 C   0  0  0  0  0  0  0  0  0  0  0  0
    4.7686   -5.8479    0.0000 C   0  0  0  0  0  0  0  0  0  0  0  0
    5.1753   -6.7614    0.0000 C   0  0  0  0  0  0  0  0  0  0  0  0
    5.3564   -5.0388    0.0000 C   0  0  0  0  0  0  0  0  0  0  0  0
    5.0474   -4.0878    0.0000 C   0  0  0  0  0  0  0  0  0  0  0  0
    4.0963   -3.7788    0.0000 C   0  0  0  0  0  0  0  0  0  0  0  0
    3.8884   -2.8006    0.0000 O   0  0  0  0  0  0  0  0  0  0  0  0
    3.3532   -4.4479    0.0000 N   0  0  0  0  0  0  0  0  0  0  0  0
    2.4021   -4.1389    0.0000 C   0  0  0  0  0  0  0  0  0  0  0  0
    1.6590   -4.8080    0.0000 C   0  0  0  0  0  0  0  0  0  0  0  0
    0.7079   -4.4990    0.0000 C   0  0  0  0  0  0  0  0  0  0  0  0
    0.5000   -3.5208    0.0000 C   0  0  0  0  0  0  0  0  0  0  0  0
    1.2431   -2.8517    0.0000 C   0  0  0  0  0  0  0  0  0  0  0  0
    2.1942   -3.1607    0.0000 C   0  0  0  0  0  0  0  0  0  0  0  0
    2.9373   -2.4916    0.0000 O   0  5  0  0  0  0  0  0  0  0  0  0
    5.8564   -3.5000    0.0000 C   0  0  0  0  0  0  0  0  0  0  0  0
    5.8564   -2.5000    0.0000 C   0  0  0  0  0  0  0  0  0  0  0  0
    4.9904   -2.0000    0.0000 C   0  0  0  0  0  0  0  0  0  0  0  0
    4.9904   -1.0000    0.0000 C   0  0  0  0  0  0  0  0  0  0  0  0
    5.8564   -0.5000    0.0000 C   0  0  0  0  0  0  0  0  0  0  0  0
    6.7224   -1.0000    0.0000 C   0  0  0  0  0  0  0  0  0  0  0  0
    6.7224   -2.0000    0.0000 C   0  0  0  0  0  0  0  0  0  0  0  0
    6.6654   -4.0878    0.0000 C   0  0  0  0  0  0  0  0  0  0  0  0
    7.6165   -3.7788    0.0000 C   0  0  0  0  0  0  0  0  0  0  0  0
    7.8244   -2.8006    0.0000 C   0  0  0  0  0  0  0  0  0  0  0  0
    8.7754   -2.4916    0.0000 C   0  0  0  0  0  0  0  0  0  0  0  0
    9.5186   -3.1607    0.0000 C   0  0  0  0  0  0  0  0  0  0  0  0
   10.4696   -2.8517    0.0000 F   0  0  0  0  0  0  0  0  0  0  0  0
    9.3107   -4.1389    0.0000 C   0  0  0  0  0  0  0  0  0  0  0  0
    8.3596   -4.4479    0.0000 C   0  0  0  0  0  0  0  0  0  0  0  0
    6.3564   -5.0388    0.0000 N   0  0  0  0  0  0  0  0  0  0  0  0
    6.9442   -5.8479    0.0000 C   0  0  0  0  0  0  0  0  0  0  0  0
    7.9387   -5.7433    0.0000 C   0  0  0  0  0  0  0  0  0  0  0  0
    8.5265   -6.5523    0.0000 C   0  0  1  0  0  0  0  0  0  0  0  0
    9.4400   -6.9591    0.0000 H   0  0  0  0  0  0  0  0  0  0  0  0
    9.3355   -5.9646    0.0000 O   0  0  0  0  0  0  0  0  0  0  0  0
    8.1197   -7.4659    0.0000 C   0  0  0  0  0  0  0  0  0  0  0  0
    8.7075   -8.2749    0.0000 C   0  0  1  0  0  0  0  0  0  0  0  0
    9.6211   -8.6816    0.0000 H   0  0  0  0  0  0  0  0  0  0  0  0
    9.5165   -7.6871    0.0000 O   0  0  0  0  0  0  0  0  0  0  0  0
    8.3008   -9.1885    0.0000 C   0  0  0  0  0  0  0  0  0  0  0  0
    8.8886   -9.9975    0.0000 C   0  0  0  0  0  0  0  0  0  0  0  0
    8.4818  -10.9110    0.0000 O   0  5  0  0  0  0  0  0  0  0  0  0
    9.8831   -9.8929    0.0000 O   0  0  0  0  0  0  0  0  0  0  0  0
  3  4  1  0  0  0  0
  4  5  1  0  0  0  0
  4  6  1  0  0  0  0
  6 33  1  0  0  0  0
  6  7  2  0  0  0  0
  7  8  1  0  0  0  0
  7 18  1  0  0  0  0
  8  9  2  0  0  0  0
  8 10  1  0  0  0  0
 10 11  1  0  0  0  0
 11 16  1  0  0  0  0
 11 12  2  0  0  0  0
 12 13  1  0  0  0  0
 13 14  2  0  0  0  0
 14 15  1  0  0  0  0
 15 16  2  0  0  0  0
 16 17  1  0  0  0  0
 18 19  1  0  0  0  0
 18 25  2  0  0  0  0
 19 24  1  0  0  0  0
 19 20  2  0  0  0  0
 20 21  1  0  0  0  0
 21 22  2  0  0  0  0
 22 23  1  0  0  0  0
 23 24  2  0  0  0  0
 25 26  1  0  0  0  0
 25 33  1  0  0  0  0
 26 32  1  0  0  0  0
 26 27  2  0  0  0  0
 27 28  1  0  0  0  0
 28 29  2  0  0  0  0
 29 30  1  0  0  0  0
 29 31  1  0  0  0  0
 31 32  2  0  0  0  0
 33 34  1  0  0  0  0
 34 35  1  0  0  0  0
 35 36  1  0  0  0  0
 36 37  1  6  0  0  0
 36 38  1  0  0  0  0
 36 39  1  0  0  0  0
 39 40  1  0  0  0  0
 40 41  1  6  0  0  0
 40 42  1  0  0  0  0
 40 43  1  0  0  0  0
 43 44  1  0  0  0  0
 44 45  1  0  0  0  0
 44 46  2  0  0  0  0
M  CHG  4   1   1   2   1  17  -1  45  -1
M  END
>  <Supplier>
www.ambinter.com

>  <Ambinter_reference>
Amb35808060

>  <MW>
618.603

$$$$
Amb35808395
 OpenBabel08272101522D

 56 61  0  0  1  0  0  0  0  0999 V2000
    7.1201   -0.8061    0.0000 C   0  0  0  0  0  0  0  0  0  0  0  0
    6.1690   -1.1151    0.0000 C   0  0  0  0  0  0  0  0  0  0  0  0
    5.4259   -0.4460    0.0000 C   0  0  0  0  0  0  0  0  0  0  0  0
    5.9611   -2.0933    0.0000 C   0  0  0  0  0  0  0  0  0  0  0  0
    6.6302   -2.8364    0.0000 C   0  0  0  0  0  0  0  0  0  0  0  0
    7.6248   -2.7319    0.0000 C   0  0  0  0  0  0  0  0  0  0  0  0
    8.2125   -3.5409    0.0000 O   0  0  0  0  0  0  0  0  0  0  0  0
    8.0315   -1.8183    0.0000 N   0  0  0  0  0  0  0  0  0  0  0  0
    9.0260   -1.7138    0.0000 C   0  0  0  0  0  0  0  0  0  0  0  0
    9.4328   -0.8003    0.0000 C   0  0  0  0  0  0  0  0  0  0  0  0
   10.4273   -0.6957    0.0000 C   0  0  0  0  0  0  0  0  0  0  0  0
   11.0151   -1.5047    0.0000 C   0  0  0  0  0  0  0  0  0  0  0  0
   10.6083   -2.4183    0.0000 C   0  0  0  0  0  0  0  0  0  0  0  0
    9.6138   -2.5228    0.0000 C   0  0  0  0  0  0  0  0  0  0  0  0
    6.1302   -3.7024    0.0000 C   0  0  0  0  0  0  0  0  0  0  0  0
    6.5370   -4.6160    0.0000 C   0  0  0  0  0  0  0  0  0  0  0  0
    7.5315   -4.7205    0.0000 C   0  0  0  0  0  0  0  0  0  0  0  0
    7.9382   -5.6341    0.0000 C   0  0  0  0  0  0  0  0  0  0  0  0
    7.3505   -6.4431    0.0000 C   0  0  0  0  0  0  0  0  0  0  0  0
    6.3559   -6.3385    0.0000 C   0  0  0  0  0  0  0  0  0  0  0  0
    5.9492   -5.4250    0.0000 C   0  0  0  0  0  0  0  0  0  0  0  0
    5.1521   -3.4945    0.0000 C   0  0  0  0  0  0  0  0  0  0  0  0
    4.4089   -4.1637    0.0000 C   0  0  0  0  0  0  0  0  0  0  0  0
    4.6169   -5.1418    0.0000 C   0  0  0  0  0  0  0  0  0  0  0  0
    3.8737   -5.8109    0.0000 C   0  0  0  0  0  0  0  0  0  0  0  0
    2.9227   -5.5019    0.0000 C   0  0  0  0  0  0  0  0  0  0  0  0
    2.1795   -6.1710    0.0000 F   0  0  0  0  0  0  0  0  0  0  0  0
    2.7147   -4.5238    0.0000 C   0  0  0  0  0  0  0  0  0  0  0  0
    3.4579   -3.8546    0.0000 C   0  0  0  0  0  0  0  0  0  0  0  0
    5.0476   -2.5000    0.0000 N   0  0  0  0  0  0  0  0  0  0  0  0
    4.1815   -2.0000    0.0000 C   0  0  0  0  0  0  0  0  0  0  0  0
    4.1815   -1.0000    0.0000 C   0  0  0  0  0  0  0  0  0  0  0  0
    3.3155   -0.5000    0.0000 C   0  0  2  0  0  0  0  0  0  0  0  0
    2.5222   -1.1088    0.0000 H   0  0  0  0  0  0  0  0  0  0  0  0
    2.3496   -0.2412    0.0000 C   0  0  0  0  0  0  0  0  0  0  0  0
    2.0908    0.7247    0.0000 C   0  0  2  0  0  0  0  0  0  0  0  0
    1.3837    1.4319    0.0000 H   0  0  0  0  0  0  0  0  0  0  0  0
    2.7979    1.4319    0.0000 C   0  0  0  0  0  0  0  0  0  0  0  0
    3.7638    1.1730    0.0000 C   0  0  0  0  0  0  0  0  0  0  0  0
    4.4709    1.8801    0.0000 O   0  0  0  0  0  0  0  0  0  0  0  0
    4.0226    0.2071    0.0000 O   0  0  0  0  0  0  0  0  0  0  0  0
    1.1248    0.4659    0.0000 O   0  0  0  0  0  0  0  0  0  0  0  0
    0.8660   -0.5000    0.0000 C   0  0  2  0  0  0  0  0  0  0  0  0
    1.6594   -1.1088    0.0000 H   0  0  0  0  0  0  0  0  0  0  0  0
    0.8660   -1.5000    0.0000 O   0  0  0  0  0  0  0  0  0  0  0  0
   -0.0000   -2.0000    0.0000 C   0  0  3  0  0  0  0  0  0  0  0  0
   -0.8660   -1.5000    0.0000 C   0  0  2  0  0  0  0  0  0  0  0  0
   -1.8660   -1.5000    0.0000 H   0  0  0  0  0  0  0  0  0  0  0  0
   -1.3660   -2.3660    0.0000 O   0  0  0  0  0  0  0  0  0  0  0  0
   -0.8660   -0.5000    0.0000 C   0  0  3  0  0  0  0  0  0  0  0  0
   -1.7321    0.0000    0.0000 O   0  0  0  0  0  0  0  0  0  0  0  0
    0.0000   -0.0000    0.0000 C   0  0  3  0  0  0  0  0  0  0  0  0
    0.0000    1.0000    0.0000 O   0  0  0  0  0  0  0  0  0  0  0  0
   -0.0000   -3.0000    0.0000 C   0  0  0  0  0  0  0  0  0  0  0  0
   -0.8660   -3.5000    0.0000 O   0  0  0  0  0  0  0  0  0  0  0  0
    0.8660   -3.5000    0.0000 O   0  0  0  0  0  0  0  0  0  0  0  0
  1  2  1  0  0  0  0
  2  3  1  0  0  0  0
  2  4  1  0  0  0  0
  4 30  1  0  0  0  0
  4  5  2  0  0  0  0
  5  6  1  0  0  0  0
  5 15  1  0  0  0  0
  6  7  2  0  0  0  0
  6  8  1  0  0  0  0
  8  9  1  0  0  0  0
  9 14  1  0  0  0  0
  9 10  2  0  0  0  0
 10 11  1  0  0  0  0
 11 12  2  0  0  0  0
 12 13  1  0  0  0  0
 13 14  2  0  0  0  0
 15 16  1  0  0  0  0
 15 22  2  0  0  0  0
 16 21  1  0  0  0  0
 16 17  2  0  0  0  0
 17 18  1  0  0  0  0
 18 19  2  0  0  0  0
 19 20  1  0  0  0  0
 20 21  2  0  0  0  0
 22 23  1  0  0  0  0
 22 30  1  0  0  0  0
 23 29  1  0  0  0  0
 23 24  2  0  0  0  0
 24 25  1  0  0  0  0
 25 26  2  0  0  0  0
 26 27  1  0  0  0  0
 26 28  1  0  0  0  0
 28 29  2  0  0  0  0
 30 31  1  0  0  0  0
 31 32  1  0  0  0  0
 32 33  1  0  0  0  0
 33 34  1  1  0  0  0
 33 41  1  0  0  0  0
 33 35  1  0  0  0  0
 35 36  1  0  0  0  0
 36 37  1  6  0  0  0
 36 38  1  0  0  0  0
 36 42  1  0  0  0  0
 38 39  1  0  0  0  0
 39 40  2  0  0  0  0
 39 41  1  0  0  0  0
 42 43  1  0  0  0  0
 43 44  1  1  0  0  0
 43 52  1  0  0  0  0
 43 45  1  0  0  0  0
 45 46  1  0  0  0  0
 46 47  1  0  0  0  0
 46 54  1  0  0  0  0
 47 48  1  1  0  0  0
 47 49  1  0  0  0  0
 47 50  1  0  0  0  0
 50 51  1  0  0  0  0
 50 52  1  0  0  0  0
 52 53  1  0  0  0  0
 54 55  1  0  0  0  0
 54 56  2  0  0  0  0
M  END
>  <Supplier>
www.ambinter.com

>  <Ambinter_reference>
Amb35808395

>  <MW>
716.749

$$$$
Amb35813715
 OpenBabel08272101522D

 89 93  0  0  1  0  0  0  0  0999 V2000
    2.9681  -27.5618    0.0000 Na  0  0  0  0  0  0  0  0  0  0  0  0
    0.9894  -27.5618    0.0000 H   0  0  0  0  0  0  0  0  0  0  0  0
    7.2261    2.4841    0.0000 Ca  0  2  0  0  0 15  0  0  0  0  0  0
   22.6952  -27.5618    0.0000 C   0  0  0  0  0  0  0  0  0  0  0  0
   22.6952  -27.5618    0.0000 C   0  0  0  0  0  0  0  0  0  0  0  0
   22.6952  -27.5618    0.0000 C   0  0  0  0  0  0  0  0  0  0  0  0
   22.6952  -27.5618    0.0000 C   0  0  0  0  0  0  0  0  0  0  0  0
   22.6952  -27.5618    0.0000 C   0  0  0  0  0  0  0  0  0  0  0  0
   22.6952  -27.5618    0.0000 C   0  0  0  0  0  0  0  0  0  0  0  0
   22.6952  -27.5618    0.0000 C   0  0  0  0  0  0  0  0  0  0  0  0
   22.6952  -27.5618    0.0000 C   0  0  0  0  0  0  0  0  0  0  0  0
   22.6952  -27.5618    0.0000 C   0  0  0  0  0  0  0  0  0  0  0  0
   22.6952  -27.5618    0.0000 C   0  0  0  0  0  0  0  0  0  0  0  0
   22.6952  -27.5618    0.0000 C   0  0  0  0  0  0  0  0  0  0  0  0
   22.6952  -27.5618    0.0000 F   0  0  0  0  0  0  0  0  0  0  0  0
   22.6952  -27.5618    0.0000 C   0  0  0  0  0  0  0  0  0  0  0  0
   22.6952  -27.5618    0.0000 C   0  0  0  0  0  0  0  0  0  0  0  0
   22.6952  -27.5618    0.0000 N   0  0  0  0  0  0  0  0  0  0  0  0
   22.6952  -27.5618    0.0000 C   0  0  0  0  0  0  0  0  0  0  0  0
   22.6952  -27.5618    0.0000 C   0  0  0  0  0  0  0  0  0  0  0  0
   22.6952  -27.5618    0.0000 C   0  0  1  0  0  0  0  0  0  0  0  0
   22.6952  -27.5618    0.0000 H   0  0  0  0  0  0  0  0  0  0  0  0
   22.6952  -27.5618    0.0000 O   0  0  0  0  0  0  0  0  0  0  0  0
   22.6952  -27.5618    0.0000 C   0  0  0  0  0  0  0  0  0  0  0  0
   22.6952  -27.5618    0.0000 C   0  0  1  0  0  0  0  0  0  0  0  0
   22.6952  -27.5618    0.0000 H   0  0  0  0  0  0  0  0  0  0  0  0
   22.6952  -27.5618    0.0000 O   0  0  0  0  0  0  0  0  0  0  0  0
   22.6952  -27.5618    0.0000 C   0  0  0  0  0  0  0  0  0  0  0  0
   22.6952  -27.5618    0.0000 C   0  0  0  0  0  0  0  0  0  0  0  0
   22.6952  -27.5618    0.0000 O   0  5  0  0  0  0  0  0  0  0  0  0
   22.6952  -27.5618    0.0000 O   0  0  0  0  0  0  0  0  0  0  0  0
   22.6952  -27.5618    0.0000 C   0  0  0  0  0  0  0  0  0  0  0  0
   22.6952  -27.5618    0.0000 C   0  0  0  0  0  0  0  0  0  0  0  0
   22.6952  -27.5618    0.0000 C   0  0  0  0  0  0  0  0  0  0  0  0
   22.6952  -27.5618    0.0000 C   0  0  0  0  0  0  0  0  0  0  0  0
   22.6952  -27.5618    0.0000 C   0  0  0  0  0  0  0  0  0  0  0  0
   22.6952  -27.5618    0.0000 C   0  0  0  0  0  0  0  0  0  0  0  0
   22.6952  -27.5618    0.0000 C   0  0  0  0  0  0  0  0  0  0  0  0
   22.6952  -27.5618    0.0000 O   0  0  0  0  0  0  0  0  0  0  0  0
   22.6952  -27.5618    0.0000 N   0  0  0  0  0  0  0  0  0  0  0  0
   22.6952  -27.5618    0.0000 C   0  0  0  0  0  0  0  0  0  0  0  0
   22.6952  -27.5618    0.0000 C   0  0  0  0  0  0  0  0  0  0  0  0
   22.6952  -27.5618    0.0000 C   0  0  0  0  0  0  0  0  0  0  0  0
   22.6952  -27.5618    0.0000 C   0  0  0  0  0  0  0  0  0  0  0  0
   22.6952  -27.5618    0.0000 C   0  0  0  0  0  0  0  0  0  0  0  0
   22.6952  -27.5618    0.0000 C   0  0  0  0  0  0  0  0  0  0  0  0
   11.4653  -13.3789    0.0000 C   0  0  0  0  0  0  0  0  0  0  0  0
   12.2701  -11.5713    0.0000 C   0  0  0  0  0  0  0  0  0  0  0  0
   14.2380  -11.3645    0.0000 C   0  0  0  0  0  0  0  0  0  0  0  0
   11.1071   -9.9705    0.0000 C   0  0  0  0  0  0  0  0  0  0  0  0
   11.7185   -8.0886    0.0000 C   0  0  0  0  0  0  0  0  0  0  0  0
   10.1177   -6.9255    0.0000 C   0  0  0  0  0  0  0  0  0  0  0  0
    8.5169   -8.0886    0.0000 C   0  0  0  0  0  0  0  0  0  0  0  0
    6.6350   -7.4771    0.0000 C   0  0  0  0  0  0  0  0  0  0  0  0
    6.2236   -5.5417    0.0000 C   0  0  0  0  0  0  0  0  0  0  0  0
    4.3417   -4.9302    0.0000 C   0  0  0  0  0  0  0  0  0  0  0  0
    2.8712   -6.2542    0.0000 C   0  0  0  0  0  0  0  0  0  0  0  0
    0.9894   -5.6428    0.0000 F   0  0  0  0  0  0  0  0  0  0  0  0
    3.2826   -8.1897    0.0000 C   0  0  0  0  0  0  0  0  0  0  0  0
    5.1645   -8.8012    0.0000 C   0  0  0  0  0  0  0  0  0  0  0  0
    9.1283   -9.9705    0.0000 N   0  0  0  0  0  0  0  0  0  0  0  0
    7.9653  -11.5713    0.0000 C   0  0  0  0  0  0  0  0  0  0  0  0
    8.7701  -13.3789    0.0000 C   0  0  0  0  0  0  0  0  0  0  0  0
    7.6070  -14.9798    0.0000 C   0  0  1  0  0  0  0  0  0  0  0  0
    5.7994  -15.7846    0.0000 H   0  0  0  0  0  0  0  0  0  0  0  0
    6.0062  -13.8167    0.0000 O   0  0  0  0  0  0  0  0  0  0  0  0
    8.4118  -16.7874    0.0000 C   0  0  0  0  0  0  0  0  0  0  0  0
    7.2488  -18.3882    0.0000 C   0  0  1  0  0  0  0  0  0  0  0  0
    5.4411  -19.1931    0.0000 H   0  0  0  0  0  0  0  0  0  0  0  0
    5.6480  -17.2252    0.0000 O   0  0  0  0  0  0  0  0  0  0  0  0
    8.0536  -20.1959    0.0000 C   0  0  0  0  0  0  0  0  0  0  0  0
    6.8905  -21.7967    0.0000 C   0  0  0  0  0  0  0  0  0  0  0  0
    7.6954  -23.6044    0.0000 O   0  5  0  0  0  0  0  0  0  0  0  0
    4.9226  -21.5899    0.0000 O   0  0  0  0  0  0  0  0  0  0  0  0
   10.1177   -4.9468    0.0000 C   0  0  0  0  0  0  0  0  0  0  0  0
   11.8313   -3.9574    0.0000 C   0  0  0  0  0  0  0  0  0  0  0  0
   11.8313   -1.9787    0.0000 C   0  0  0  0  0  0  0  0  0  0  0  0
   10.1177   -0.9894    0.0000 C   0  0  0  0  0  0  0  0  0  0  0  0
    8.4041   -1.9787    0.0000 C   0  0  0  0  0  0  0  0  0  0  0  0
    8.4041   -3.9574    0.0000 C   0  0  0  0  0  0  0  0  0  0  0  0
   13.6004   -7.4771    0.0000 C   0  0  0  0  0  0  0  0  0  0  0  0
   14.0118   -5.5417    0.0000 O   0  0  0  0  0  0  0  0  0  0  0  0
   15.0709   -8.8012    0.0000 N   0  0  0  0  0  0  0  0  0  0  0  0
   16.9527   -8.1897    0.0000 C   0  0  0  0  0  0  0  0  0  0  0  0
   18.4232   -9.5137    0.0000 C   0  0  0  0  0  0  0  0  0  0  0  0
   20.3051   -8.9023    0.0000 C   0  0  0  0  0  0  0  0  0  0  0  0
   20.7165   -6.9668    0.0000 C   0  0  0  0  0  0  0  0  0  0  0  0
   19.2460   -5.6428    0.0000 C   0  0  0  0  0  0  0  0  0  0  0  0
   17.3641   -6.2542    0.0000 C   0  0  0  0  0  0  0  0  0  0  0  0
  1  2  1  0  0  0  0
  4  5  1  0  0  0  0
  5  6  1  0  0  0  0
  5  7  1  0  0  0  0
  7 18  1  0  0  0  0
  7  8  2  0  0  0  0
  8  9  1  0  0  0  0
  8 38  1  0  0  0  0
  9 10  2  0  0  0  0
  9 32  1  0  0  0  0
 10 11  1  0  0  0  0
 10 18  1  0  0  0  0
 11 17  1  0  0  0  0
 11 12  2  0  0  0  0
 12 13  1  0  0  0  0
 13 14  2  0  0  0  0
 14 15  1  0  0  0  0
 14 16  1  0  0  0  0
 16 17  2  0  0  0  0
 18 19  1  0  0  0  0
 19 20  1  0  0  0  0
 20 21  1  0  0  0  0
 21 22  1  1  0  0  0
 21 23  1  0  0  0  0
 21 24  1  0  0  0  0
 24 25  1  0  0  0  0
 25 26  1  1  0  0  0
 25 27  1  0  0  0  0
 25 28  1  0  0  0  0
 28 29  1  0  0  0  0
 29 30  1  0  0  0  0
 29 31  2  0  0  0  0
 32 37  1  0  0  0  0
 32 33  2  0  0  0  0
 33 34  1  0  0  0  0
 34 35  2  0  0  0  0
 35 36  1  0  0  0  0
 36 37  2  0  0  0  0
 38 39  2  0  0  0  0
 38 40  1  0  0  0  0
 40 41  1  0  0  0  0
 41 46  1  0  0  0  0
 41 42  2  0  0  0  0
 42 43  1  0  0  0  0
 43 44  2  0  0  0  0
 44 45  1  0  0  0  0
 45 46  2  0  0  0  0
 47 48  1  0  0  0  0
 48 49  1  0  0  0  0
 48 50  1  0  0  0  0
 50 61  1  0  0  0  0
 50 51  2  0  0  0  0
 51 52  1  0  0  0  0
 51 81  1  0  0  0  0
 52 53  2  0  0  0  0
 52 75  1  0  0  0  0
 53 54  1  0  0  0  0
 53 61  1  0  0  0  0
 54 60  1  0  0  0  0
 54 55  2  0  0  0  0
 55 56  1  0  0  0  0
 56 57  2  0  0  0  0
 57 58  1  0  0  0  0
 57 59  1  0  0  0  0
 59 60  2  0  0  0  0
 61 62  1  0  0  0  0
 62 63  1  0  0  0  0
 63 64  1  0  0  0  0
 64 65  1  1  0  0  0
 64 66  1  0  0  0  0
 64 67  1  0  0  0  0
 67 68  1  0  0  0  0
 68 69  1  1  0  0  0
 68 70  1  0  0  0  0
 68 71  1  0  0  0  0
 71 72  1  0  0  0  0
 72 73  1  0  0  0  0
 72 74  2  0  0  0  0
 75 80  1  0  0  0  0
 75 76  2  0  0  0  0
 76 77  1  0  0  0  0
 77 78  2  0  0  0  0
 78 79  1  0  0  0  0
 79 80  2  0  0  0  0
 81 82  2  0  0  0  0
 81 83  1  0  0  0  0
 83 84  1  0  0  0  0
 84 89  1  0  0  0  0
 84 85  2  0  0  0  0
 85 86  1  0  0  0  0
 86 87  2  0  0  0  0
 87 88  1  0  0  0  0
 88 89  2  0  0  0  0
M  CHG  3   3   2  30  -1  73  -1
M  END
>  <Supplier>
www.ambinter.com

>  <Ambinter_reference>
Amb35813715

>  <MW>
1179.34

$$$$
Amb35814049
 OpenBabel08272101522D

 45 47  0  0  1  0  0  0  0  0999 V2000
   12.4696   -0.5000    0.0000 Na  0  0  0  0  0  0  0  0  0  0  0  0
   11.4696   -0.5000    0.0000 H   0  0  0  0  0  0  0  0  0  0  0  0
    3.7741   -5.7433    0.0000 C   0  0  0  0  0  0  0  0  0  0  0  0
    4.7686   -5.8479    0.0000 C   0  0  0  0  0  0  0  0  0  0  0  0
    5.1753   -6.7614    0.0000 C   0  0  0  0  0  0  0  0  0  0  0  0
    5.3564   -5.0388    0.0000 C   0  0  0  0  0  0  0  0  0  0  0  0
    5.0474   -4.0878    0.0000 C   0  0  0  0  0  0  0  0  0  0  0  0
    4.0963   -3.7788    0.0000 C   0  0  0  0  0  0  0  0  0  0  0  0
    3.8884   -2.8006    0.0000 O   0  0  0  0  0  0  0  0  0  0  0  0
    3.3532   -4.4479    0.0000 N   0  0  0  0  0  0  0  0  0  0  0  0
    2.4021   -4.1389    0.0000 C   0  0  0  0  0  0  0  0  0  0  0  0
    1.6590   -4.8080    0.0000 C   0  0  0  0  0  0  0  0  0  0  0  0
    0.7079   -4.4990    0.0000 C   0  0  0  0  0  0  0  0  0  0  0  0
    0.5000   -3.5208    0.0000 C   0  0  0  0  0  0  0  0  0  0  0  0
    1.2431   -2.8517    0.0000 C   0  0  0  0  0  0  0  0  0  0  0  0
    2.1942   -3.1607    0.0000 C   0  0  0  0  0  0  0  0  0  0  0  0
    5.8564   -3.5000    0.0000 C   0  0  0  0  0  0  0  0  0  0  0  0
    5.8564   -2.5000    0.0000 C   0  0  0  0  0  0  0  0  0  0  0  0
    4.9904   -2.0000    0.0000 C   0  0  0  0  0  0  0  0  0  0  0  0
    4.9904   -1.0000    0.0000 C   0  0  0  0  0  0  0  0  0  0  0  0
    5.8564   -0.5000    0.0000 C   0  0  0  0  0  0  0  0  0  0  0  0
    6.7224   -1.0000    0.0000 C   0  0  0  0  0  0  0  0  0  0  0  0
    6.7224   -2.0000    0.0000 C   0  0  0  0  0  0  0  0  0  0  0  0
    6.6654   -4.0878    0.0000 C   0  0  0  0  0  0  0  0  0  0  0  0
    7.6165   -3.7788    0.0000 C   0  0  0  0  0  0  0  0  0  0  0  0
    7.8244   -2.8006    0.0000 C   0  0  0  0  0  0  0  0  0  0  0  0
    8.7754   -2.4916    0.0000 C   0  0  0  0  0  0  0  0  0  0  0  0
    9.5186   -3.1607    0.0000 C   0  0  0  0  0  0  0  0  0  0  0  0
   10.4696   -2.8517    0.0000 F   0  0  0  0  0  0  0  0  0  0  0  0
    9.3107   -4.1389    0.0000 C   0  0  0  0  0  0  0  0  0  0  0  0
    8.3596   -4.4479    0.0000 C   0  0  0  0  0  0  0  0  0  0  0  0
    6.3564   -5.0388    0.0000 N   0  0  0  0  0  0  0  0  0  0  0  0
    6.9442   -5.8479    0.0000 C   0  0  0  0  0  0  0  0  0  0  0  0
    7.9387   -5.7433    0.0000 C   0  0  0  0  0  0  0  0  0  0  0  0
    8.5265   -6.5523    0.0000 C   0  0  1  0  0  0  0  0  0  0  0  0
    9.4400   -6.9591    0.0000 H   0  0  0  0  0  0  0  0  0  0  0  0
    9.3355   -5.9646    0.0000 O   0  0  0  0  0  0  0  0  0  0  0  0
    8.1197   -7.4659    0.0000 C   0  0  0  0  0  0  0  0  0  0  0  0
    8.7075   -8.2749    0.0000 C   0  0  1  0  0  0  0  0  0  0  0  0
    9.6211   -8.6816    0.0000 H   0  0  0  0  0  0  0  0  0  0  0  0
    9.5165   -7.6871    0.0000 O   0  0  0  0  0  0  0  0  0  0  0  0
    8.3008   -9.1885    0.0000 C   0  0  0  0  0  0  0  0  0  0  0  0
    8.8886   -9.9975    0.0000 C   0  0  0  0  0  0  0  0  0  0  0  0
    8.4818  -10.9110    0.0000 O   0  0  0  0  0  0  0  0  0  0  0  0
    9.8831   -9.8929    0.0000 O   0  0  0  0  0  0  0  0  0  0  0  0
  1  2  1  0  0  0  0
  3  4  1  0  0  0  0
  4  5  1  0  0  0  0
  4  6  1  0  0  0  0
  6 32  1  0  0  0  0
  6  7  2  0  0  0  0
  7  8  1  0  0  0  0
  7 17  1  0  0  0  0
  8  9  2  0  0  0  0
  8 10  1  0  0  0  0
 10 11  1  0  0  0  0
 11 16  1  0  0  0  0
 11 12  2  0  0  0  0
 12 13  1  0  0  0  0
 13 14  2  0  0  0  0
 14 15  1  0  0  0  0
 15 16  2  0  0  0  0
 17 18  1  0  0  0  0
 17 24  2  0  0  0  0
 18 23  1  0  0  0  0
 18 19  2  0  0  0  0
 19 20  1  0  0  0  0
 20 21  2  0  0  0  0
 21 22  1  0  0  0  0
 22 23  2  0  0  0  0
 24 25  1  0  0  0  0
 24 32  1  0  0  0  0
 25 31  1  0  0  0  0
 25 26  2  0  0  0  0
 26 27  1  0  0  0  0
 27 28  2  0  0  0  0
 28 29  1  0  0  0  0
 28 30  1  0  0  0  0
 30 31  2  0  0  0  0
 32 33  1  0  0  0  0
 33 34  1  0  0  0  0
 34 35  1  0  0  0  0
 35 36  1  6  0  0  0
 35 37  1  0  0  0  0
 35 38  1  0  0  0  0
 38 39  1  0  0  0  0
 39 40  1  6  0  0  0
 39 41  1  0  0  0  0
 39 42  1  0  0  0  0
 42 43  1  0  0  0  0
 43 44  1  0  0  0  0
 43 45  2  0  0  0  0
M  END
>  <Supplier>
www.ambinter.com

>  <Ambinter_reference>
Amb35814049

>  <MW>
582.638

$$$$
Amb35815387
 OpenBabel08272101522D

 41 44  0  0  1  0  0  0  0  0999 V2000
    2.5823    0.7045    0.0000 C   0  0  0  0  0  0  0  0  0  0  0  0
    1.5878    0.8090    0.0000 C   0  0  0  0  0  0  0  0  0  0  0  0
    1.1810    1.7226    0.0000 C   0  0  0  0  0  0  0  0  0  0  0  0
    1.0000    0.0000    0.0000 C   0  0  0  0  0  0  0  0  0  0  0  0
    1.3090   -0.9511    0.0000 C   0  0  0  0  0  0  0  0  0  0  0  0
    2.2601   -1.2601    0.0000 C   0  0  0  0  0  0  0  0  0  0  0  0
    2.4680   -2.2382    0.0000 O   0  0  0  0  0  0  0  0  0  0  0  0
    3.0032   -0.5909    0.0000 N   0  0  0  0  0  0  0  0  0  0  0  0
    3.9543   -0.9000    0.0000 C   0  0  0  0  0  0  0  0  0  0  0  0
    4.6974   -0.2308    0.0000 C   0  0  0  0  0  0  0  0  0  0  0  0
    5.6485   -0.5398    0.0000 C   0  0  0  0  0  0  0  0  0  0  0  0
    5.8564   -1.5180    0.0000 C   0  0  0  0  0  0  0  0  0  0  0  0
    5.1132   -2.1871    0.0000 C   0  0  0  0  0  0  0  0  0  0  0  0
    4.1622   -1.8781    0.0000 C   0  0  0  0  0  0  0  0  0  0  0  0
    0.5000   -1.5388    0.0000 C   0  0  0  0  0  0  0  0  0  0  0  0
    0.5000   -2.5388    0.0000 C   0  0  0  0  0  0  0  0  0  0  0  0
    1.3660   -3.0388    0.0000 C   0  0  0  0  0  0  0  0  0  0  0  0
    1.3660   -4.0388    0.0000 C   0  0  0  0  0  0  0  0  0  0  0  0
    0.5000   -4.5388    0.0000 C   0  0  0  0  0  0  0  0  0  0  0  0
   -0.3660   -4.0388    0.0000 C   0  0  0  0  0  0  0  0  0  0  0  0
   -0.3660   -3.0388    0.0000 C   0  0  0  0  0  0  0  0  0  0  0  0
   -0.3090   -0.9511    0.0000 C   0  0  0  0  0  0  0  0  0  0  0  0
   -1.2601   -1.2601    0.0000 C   0  0  0  0  0  0  0  0  0  0  0  0
   -1.4680   -2.2382    0.0000 C   0  0  0  0  0  0  0  0  0  0  0  0
   -2.4190   -2.5472    0.0000 C   0  0  0  0  0  0  0  0  0  0  0  0
   -3.1622   -1.8781    0.0000 C   0  0  0  0  0  0  0  0  0  0  0  0
   -4.1132   -2.1871    0.0000 F   0  0  0  0  0  0  0  0  0  0  0  0
   -2.9543   -0.9000    0.0000 C   0  0  0  0  0  0  0  0  0  0  0  0
   -2.0032   -0.5909    0.0000 C   0  0  0  0  0  0  0  0  0  0  0  0
   -0.0000   -0.0000    0.0000 N   0  0  0  0  0  0  0  0  0  0  0  0
   -0.5878    0.8090    0.0000 C   0  0  0  0  0  0  0  0  0  0  0  0
   -1.5823    0.7045    0.0000 C   0  0  0  0  0  0  0  0  0  0  0  0
   -2.1701    1.5135    0.0000 C   0  0  3  0  0  0  0  0  0  0  0  0
   -1.7634    2.4271    0.0000 O   0  0  0  0  0  0  0  0  0  0  0  0
   -3.1646    1.4090    0.0000 C   0  0  0  0  0  0  0  0  0  0  0  0
   -3.7524    2.2180    0.0000 C   0  0  0  0  0  0  0  0  0  0  0  0
   -3.3457    3.1315    0.0000 O   0  0  0  0  0  0  0  0  0  0  0  0
   -4.7469    2.1135    0.0000 C   0  0  0  0  0  0  0  0  0  0  0  0
   -5.3347    2.9225    0.0000 C   0  0  0  0  0  0  0  0  0  0  0  0
   -4.9280    3.8360    0.0000 O   0  0  0  0  0  0  0  0  0  0  0  0
   -6.3292    2.8180    0.0000 O   0  0  0  0  0  0  0  0  0  0  0  0
  1  2  1  0  0  0  0
  2  3  1  0  0  0  0
  2  4  1  0  0  0  0
  4 30  1  0  0  0  0
  4  5  2  0  0  0  0
  5  6  1  0  0  0  0
  5 15  1  0  0  0  0
  6  7  2  0  0  0  0
  6  8  1  0  0  0  0
  8  9  1  0  0  0  0
  9 14  1  0  0  0  0
  9 10  2  0  0  0  0
 10 11  1  0  0  0  0
 11 12  2  0  0  0  0
 12 13  1  0  0  0  0
 13 14  2  0  0  0  0
 15 16  1  0  0  0  0
 15 22  2  0  0  0  0
 16 21  1  0  0  0  0
 16 17  2  0  0  0  0
 17 18  1  0  0  0  0
 18 19  2  0  0  0  0
 19 20  1  0  0  0  0
 20 21  2  0  0  0  0
 22 23  1  0  0  0  0
 22 30  1  0  0  0  0
 23 29  1  0  0  0  0
 23 24  2  0  0  0  0
 24 25  1  0  0  0  0
 25 26  2  0  0  0  0
 26 27  1  0  0  0  0
 26 28  1  0  0  0  0
 28 29  2  0  0  0  0
 30 31  1  0  0  0  0
 31 32  1  0  0  0  0
 32 33  1  0  0  0  0
 33 34  1  0  0  0  0
 33 35  1  0  0  0  0
 35 36  1  0  0  0  0
 36 37  2  0  0  0  0
 36 38  1  0  0  0  0
 38 39  1  0  0  0  0
 39 40  1  0  0  0  0
 39 41  2  0  0  0  0
M  END
>  <Supplier>
www.ambinter.com

>  <Ambinter_reference>
Amb35815387

>  <MW>
556.624

$$$$
Amb35822772
 OpenBabel08272101522D

 87 92  0  0  1  0  0  0  0  0999 V2000
    7.3491    1.4815    0.0000 Ca  0  2  0  0  0 15  0  0  0  0  0  0
   36.3304  -13.3715    0.0000 C   0  0  0  0  0  0  0  0  0  0  0  0
   34.3413  -13.1625    0.0000 C   0  0  0  0  0  0  0  0  0  0  0  0
   33.5278  -11.3354    0.0000 C   0  0  0  0  0  0  0  0  0  0  0  0
   33.1657  -14.7805    0.0000 C   0  0  0  0  0  0  0  0  0  0  0  0
   33.7838  -16.6826    0.0000 C   0  0  0  0  0  0  0  0  0  0  0  0
   32.1657  -17.8582    0.0000 C   0  0  0  0  0  0  0  0  0  0  0  0
   30.5477  -16.6826    0.0000 C   0  0  0  0  0  0  0  0  0  0  0  0
   28.6456  -17.3006    0.0000 C   0  0  0  0  0  0  0  0  0  0  0  0
   28.2298  -19.2569    0.0000 C   0  0  0  0  0  0  0  0  0  0  0  0
   26.3277  -19.8750    0.0000 C   0  0  0  0  0  0  0  0  0  0  0  0
   24.8414  -18.5367    0.0000 C   0  0  0  0  0  0  0  0  0  0  0  0
   22.9393  -19.1547    0.0000 F   0  0  0  0  0  0  0  0  0  0  0  0
   25.2572  -16.5804    0.0000 C   0  0  0  0  0  0  0  0  0  0  0  0
   27.1593  -15.9624    0.0000 C   0  0  0  0  0  0  0  0  0  0  0  0
   31.1657  -14.7805    0.0000 N   0  0  0  0  0  0  0  0  0  0  0  0
   29.9902  -13.1625    0.0000 C   0  0  0  0  0  0  0  0  0  0  0  0
   30.8037  -11.3354    0.0000 C   0  0  0  0  0  0  0  0  0  0  0  0
   29.6281   -9.7173    0.0000 C   0  0  2  0  0  0  0  0  0  0  0  0
   27.8010   -8.9039    0.0000 H   0  0  0  0  0  0  0  0  0  0  0  0
   28.0100  -10.8929    0.0000 O   0  0  0  0  0  0  0  0  0  0  0  0
   30.4416   -7.8902    0.0000 C   0  0  0  0  0  0  0  0  0  0  0  0
   29.2660   -6.2722    0.0000 C   0  0  2  0  0  0  0  0  0  0  0  0
   27.4389   -5.4587    0.0000 H   0  0  0  0  0  0  0  0  0  0  0  0
   27.6479   -7.4478    0.0000 O   0  0  0  0  0  0  0  0  0  0  0  0
   30.0795   -4.4451    0.0000 C   0  0  0  0  0  0  0  0  0  0  0  0
   28.9039   -2.8271    0.0000 C   0  0  0  0  0  0  0  0  0  0  0  0
   29.7174   -1.0000    0.0000 O   0  5  0  0  0  0  0  0  0  0  0  0
   26.9148   -3.0361    0.0000 O   0  0  0  0  0  0  0  0  0  0  0  0
   32.1657  -19.8582    0.0000 C   0  0  0  0  0  0  0  0  0  0  0  0
   33.8978  -20.8582    0.0000 C   0  0  0  0  0  0  0  0  0  0  0  0
   33.8978  -22.8582    0.0000 C   0  0  0  0  0  0  0  0  0  0  0  0
   32.1657  -23.8582    0.0000 C   0  0  0  0  0  0  0  0  0  0  0  0
   30.4337  -22.8582    0.0000 C   0  0  0  0  0  0  0  0  0  0  0  0
   30.4337  -20.8582    0.0000 C   0  0  0  0  0  0  0  0  0  0  0  0
   35.6859  -17.3006    0.0000 C   0  0  0  0  0  0  0  0  0  0  0  0
   36.1017  -19.2569    0.0000 O   0  0  0  0  0  0  0  0  0  0  0  0
   37.1722  -15.9624    0.0000 N   0  0  0  0  0  0  0  0  0  0  0  0
   39.0743  -16.5804    0.0000 C   0  0  0  0  0  0  0  0  0  0  0  0
   39.4901  -18.5367    0.0000 C   0  0  0  0  0  0  0  0  0  0  0  0
   41.3922  -19.1547    0.0000 C   0  0  0  0  0  0  0  0  0  0  0  0
   42.8785  -17.8165    0.0000 C   0  0  0  0  0  0  0  0  0  0  0  0
   42.4627  -15.8602    0.0000 C   0  0  0  0  0  0  0  0  0  0  0  0
   40.5606  -15.2422    0.0000 C   0  0  0  0  0  0  0  0  0  0  0  0
    1.0000  -27.8582    0.0000 C   0  0  0  0  0  0  0  0  0  0  0  0
    1.0000  -27.8582    0.0000 C   0  0  0  0  0  0  0  0  0  0  0  0
    1.0000  -27.8582    0.0000 C   0  0  0  0  0  0  0  0  0  0  0  0
    1.0000  -27.8582    0.0000 C   0  0  0  0  0  0  0  0  0  0  0  0
    1.0000  -27.8582    0.0000 C   0  0  0  0  0  0  0  0  0  0  0  0
    1.0000  -27.8582    0.0000 C   0  0  0  0  0  0  0  0  0  0  0  0
    1.0000  -27.8582    0.0000 C   0  0  0  0  0  0  0  0  0  0  0  0
    1.0000  -27.8582    0.0000 C   0  0  0  0  0  0  0  0  0  0  0  0
    1.0000  -27.8582    0.0000 C   0  0  0  0  0  0  0  0  0  0  0  0
    1.0000  -27.8582    0.0000 C   0  0  0  0  0  0  0  0  0  0  0  0
    1.0000  -27.8582    0.0000 C   0  0  0  0  0  0  0  0  0  0  0  0
    1.0000  -27.8582    0.0000 F   0  0  0  0  0  0  0  0  0  0  0  0
    1.0000  -27.8582    0.0000 C   0  0  0  0  0  0  0  0  0  0  0  0
    1.0000  -27.8582    0.0000 C   0  0  0  0  0  0  0  0  0  0  0  0
    1.0000  -27.8582    0.0000 N   0  0  0  0  0  0  0  0  0  0  0  0
    1.0000  -27.8582    0.0000 C   0  0  0  0  0  0  0  0  0  0  0  0
    1.0000  -27.8582    0.0000 C   0  0  0  0  0  0  0  0  0  0  0  0
    1.0000  -27.8582    0.0000 C   0  0  2  0  0  0  0  0  0  0  0  0
    1.0000  -27.8582    0.0000 H   0  0  0  0  0  0  0  0  0  0  0  0
    1.0000  -27.8582    0.0000 O   0  0  0  0  0  0  0  0  0  0  0  0
    1.0000  -27.8582    0.0000 C   0  0  0  0  0  0  0  0  0  0  0  0
    1.0000  -27.8582    0.0000 C   0  0  2  0  0  0  0  0  0  0  0  0
    1.0000  -27.8582    0.0000 H   0  0  0  0  0  0  0  0  0  0  0  0
    1.0000  -27.8582    0.0000 O   0  0  0  0  0  0  0  0  0  0  0  0
    1.0000  -27.8582    0.0000 C   0  0  0  0  0  0  0  0  0  0  0  0
    1.0000  -27.8582    0.0000 C   0  0  0  0  0  0  0  0  0  0  0  0
    1.0000  -27.8582    0.0000 O   0  5  0  0  0  0  0  0  0  0  0  0
    1.0000  -27.8582    0.0000 O   0  0  0  0  0  0  0  0  0  0  0  0
    1.0000  -27.8582    0.0000 C   0  0  0  0  0  0  0  0  0  0  0  0
    1.0000  -27.8582    0.0000 C   0  0  0  0  0  0  0  0  0  0  0  0
    1.0000  -27.8582    0.0000 C   0  0  0  0  0  0  0  0  0  0  0  0
    1.0000  -27.8582    0.0000 C   0  0  0  0  0  0  0  0  0  0  0  0
    1.0000  -27.8582    0.0000 C   0  0  0  0  0  0  0  0  0  0  0  0
    1.0000  -27.8582    0.0000 C   0  0  0  0  0  0  0  0  0  0  0  0
    1.0000  -27.8582    0.0000 C   0  0  0  0  0  0  0  0  0  0  0  0
    1.0000  -27.8582    0.0000 O   0  0  0  0  0  0  0  0  0  0  0  0
    1.0000  -27.8582    0.0000 N   0  0  0  0  0  0  0  0  0  0  0  0
    1.0000  -27.8582    0.0000 C   0  0  0  0  0  0  0  0  0  0  0  0
    1.0000  -27.8582    0.0000 C   0  0  0  0  0  0  0  0  0  0  0  0
    1.0000  -27.8582    0.0000 C   0  0  0  0  0  0  0  0  0  0  0  0
    1.0000  -27.8582    0.0000 C   0  0  0  0  0  0  0  0  0  0  0  0
    1.0000  -27.8582    0.0000 C   0  0  0  0  0  0  0  0  0  0  0  0
    1.0000  -27.8582    0.0000 C   0  0  0  0  0  0  0  0  0  0  0  0
  2  3  1  0  0  0  0
  3  4  1  0  0  0  0
  3  5  1  0  0  0  0
  5 16  1  0  0  0  0
  5  6  2  0  0  0  0
  6  7  1  0  0  0  0
  6 36  1  0  0  0  0
  7  8  2  0  0  0  0
  7 30  1  0  0  0  0
  8  9  1  0  0  0  0
  8 16  1  0  0  0  0
  9 15  1  0  0  0  0
  9 10  2  0  0  0  0
 10 11  1  0  0  0  0
 11 12  2  0  0  0  0
 12 13  1  0  0  0  0
 12 14  1  0  0  0  0
 14 15  2  0  0  0  0
 16 17  1  0  0  0  0
 17 18  1  0  0  0  0
 18 19  1  0  0  0  0
 19 20  1  1  0  0  0
 19 21  1  0  0  0  0
 19 22  1  0  0  0  0
 22 23  1  0  0  0  0
 23 24  1  1  0  0  0
 23 25  1  0  0  0  0
 23 26  1  0  0  0  0
 26 27  1  0  0  0  0
 27 28  1  0  0  0  0
 27 29  2  0  0  0  0
 30 35  1  0  0  0  0
 30 31  2  0  0  0  0
 31 32  1  0  0  0  0
 32 33  2  0  0  0  0
 33 34  1  0  0  0  0
 34 35  2  0  0  0  0
 36 37  2  0  0  0  0
 36 38  1  0  0  0  0
 38 39  1  0  0  0  0
 39 44  1  0  0  0  0
 39 40  2  0  0  0  0
 40 41  1  0  0  0  0
 41 42  2  0  0  0  0
 42 43  1  0  0  0  0
 43 44  2  0  0  0  0
 45 46  1  0  0  0  0
 46 47  1  0  0  0  0
 46 48  1  0  0  0  0
 48 59  1  0  0  0  0
 48 49  2  0  0  0  0
 49 50  1  0  0  0  0
 49 79  1  0  0  0  0
 50 51  2  0  0  0  0
 50 73  1  0  0  0  0
 51 52  1  0  0  0  0
 51 59  1  0  0  0  0
 52 58  1  0  0  0  0
 52 53  2  0  0  0  0
 53 54  1  0  0  0  0
 54 55  2  0  0  0  0
 55 56  1  0  0  0  0
 55 57  1  0  0  0  0
 57 58  2  0  0  0  0
 59 60  1  0  0  0  0
 60 61  1  0  0  0  0
 61 62  1  0  0  0  0
 62 63  1  1  0  0  0
 62 64  1  0  0  0  0
 62 65  1  0  0  0  0
 65 66  1  0  0  0  0
 66 67  1  1  0  0  0
 66 68  1  0  0  0  0
 66 69  1  0  0  0  0
 69 70  1  0  0  0  0
 70 71  1  0  0  0  0
 70 72  2  0  0  0  0
 73 78  1  0  0  0  0
 73 74  2  0  0  0  0
 74 75  1  0  0  0  0
 75 76  2  0  0  0  0
 76 77  1  0  0  0  0
 77 78  2  0  0  0  0
 79 80  2  0  0  0  0
 79 81  1  0  0  0  0
 81 82  1  0  0  0  0
 82 87  1  0  0  0  0
 82 83  2  0  0  0  0
 83 84  1  0  0  0  0
 84 85  2  0  0  0  0
 85 86  1  0  0  0  0
 86 87  2  0  0  0  0
M  CHG  3   1   2  28  -1  71  -1
M  END
>  <Supplier>
www.ambinter.com

>  <Ambinter_reference>
Amb35822772

>  <MW>
1155.34

$$$$
Amb35823276
 OpenBabel08272101522D

 46 49  0  0  1  0  0  0  0  0999 V2000
    1.5799   -2.5826    0.0000 C   0  0  0  0  0  0  0  0  0  0  0  0
    2.5744   -2.6871    0.0000 C   0  0  0  0  0  0  0  0  0  0  0  0
    2.9811   -3.6007    0.0000 C   0  0  0  0  0  0  0  0  0  0  0  0
    3.1622   -1.8781    0.0000 C   0  0  0  0  0  0  0  0  0  0  0  0
    2.8532   -0.9271    0.0000 C   0  0  0  0  0  0  0  0  0  0  0  0
    3.6622   -0.3393    0.0000 C   0  0  0  0  0  0  0  0  0  0  0  0
    4.4712   -0.9271    0.0000 C   0  0  0  0  0  0  0  0  0  0  0  0
    5.4223   -0.6180    0.0000 C   0  0  0  0  0  0  0  0  0  0  0  0
    5.6302    0.3601    0.0000 C   0  0  0  0  0  0  0  0  0  0  0  0
    6.5812    0.6691    0.0000 C   0  0  0  0  0  0  0  0  0  0  0  0
    7.3244   -0.0000    0.0000 C   0  0  0  0  0  0  0  0  0  0  0  0
    8.2754    0.3090    0.0000 F   0  0  0  0  0  0  0  0  0  0  0  0
    7.1165   -0.9781    0.0000 C   0  0  0  0  0  0  0  0  0  0  0  0
    6.1654   -1.2872    0.0000 C   0  0  0  0  0  0  0  0  0  0  0  0
    4.1622   -1.8781    0.0000 N   0  0  0  0  0  0  0  0  0  0  0  0
    4.7500   -2.6871    0.0000 C   0  0  0  0  0  0  0  0  0  0  0  0
    5.7445   -2.5826    0.0000 C   0  0  0  0  0  0  0  0  0  0  0  0
    6.3323   -3.3916    0.0000 C   0  0  1  0  0  0  0  0  0  0  0  0
    7.2458   -3.7983    0.0000 H   0  0  0  0  0  0  0  0  0  0  0  0
    7.1413   -2.8038    0.0000 O   0  0  0  0  0  0  0  0  0  0  0  0
    5.9255   -4.3052    0.0000 C   0  0  0  0  0  0  0  0  0  0  0  0
    6.5133   -5.1142    0.0000 C   0  0  1  0  0  0  0  0  0  0  0  0
    7.4269   -5.5209    0.0000 H   0  0  0  0  0  0  0  0  0  0  0  0
    7.3223   -4.5264    0.0000 O   0  0  0  0  0  0  0  0  0  0  0  0
    6.1066   -6.0277    0.0000 C   0  0  0  0  0  0  0  0  0  0  0  0
    6.6944   -6.8367    0.0000 C   0  0  0  0  0  0  0  0  0  0  0  0
    6.2876   -7.7503    0.0000 O   0  0  0  0  0  0  0  0  0  0  0  0
    7.6889   -6.7322    0.0000 O   0  0  0  0  0  0  0  0  0  0  0  0
    8.2767   -7.5412    0.0000 C   0  0  0  0  0  0  0  0  0  0  0  0
    7.8699   -8.4548    0.0000 C   0  0  0  0  0  0  0  0  0  0  0  0
    9.2712   -7.4367    0.0000 C   0  0  0  0  0  0  0  0  0  0  0  0
    3.6622    0.6607    0.0000 C   0  0  0  0  0  0  0  0  0  0  0  0
    2.7962    1.1607    0.0000 C   0  0  0  0  0  0  0  0  0  0  0  0
    2.7962    2.1607    0.0000 C   0  0  0  0  0  0  0  0  0  0  0  0
    3.6622    2.6607    0.0000 C   0  0  0  0  0  0  0  0  0  0  0  0
    4.5282    2.1607    0.0000 C   0  0  0  0  0  0  0  0  0  0  0  0
    4.5282    1.1607    0.0000 C   0  0  0  0  0  0  0  0  0  0  0  0
    1.9021   -0.6180    0.0000 C   0  0  0  0  0  0  0  0  0  0  0  0
    1.6942    0.3601    0.0000 O   0  0  0  0  0  0  0  0  0  0  0  0
    1.1590   -1.2872    0.0000 N   0  0  0  0  0  0  0  0  0  0  0  0
    0.2079   -0.9781    0.0000 C   0  0  0  0  0  0  0  0  0  0  0  0
   -0.5352   -1.6473    0.0000 C   0  0  0  0  0  0  0  0  0  0  0  0
   -1.4863   -1.3383    0.0000 C   0  0  0  0  0  0  0  0  0  0  0  0
   -1.6942   -0.3601    0.0000 C   0  0  0  0  0  0  0  0  0  0  0  0
   -0.9511    0.3090    0.0000 C   0  0  0  0  0  0  0  0  0  0  0  0
    0.0000   -0.0000    0.0000 C   0  0  0  0  0  0  0  0  0  0  0  0
  1  2  1  0  0  0  0
  2  3  1  0  0  0  0
  2  4  1  0  0  0  0
  4 15  1  0  0  0  0
  4  5  2  0  0  0  0
  5  6  1  0  0  0  0
  5 38  1  0  0  0  0
  6  7  2  0  0  0  0
  6 32  1  0  0  0  0
  7  8  1  0  0  0  0
  7 15  1  0  0  0  0
  8 14  1  0  0  0  0
  8  9  2  0  0  0  0
  9 10  1  0  0  0  0
 10 11  2  0  0  0  0
 11 12  1  0  0  0  0
 11 13  1  0  0  0  0
 13 14  2  0  0  0  0
 15 16  1  0  0  0  0
 16 17  1  0  0  0  0
 17 18  1  0  0  0  0
 18 19  1  6  0  0  0
 18 20  1  0  0  0  0
 18 21  1  0  0  0  0
 21 22  1  0  0  0  0
 22 23  1  6  0  0  0
 22 24  1  0  0  0  0
 22 25  1  0  0  0  0
 25 26  1  0  0  0  0
 26 27  2  0  0  0  0
 26 28  1  0  0  0  0
 28 29  1  0  0  0  0
 29 30  1  0  0  0  0
 29 31  1  0  0  0  0
 32 37  1  0  0  0  0
 32 33  2  0  0  0  0
 33 34  1  0  0  0  0
 34 35  2  0  0  0  0
 35 36  1  0  0  0  0
 36 37  2  0  0  0  0
 38 39  2  0  0  0  0
 38 40  1  0  0  0  0
 40 41  1  0  0  0  0
 41 46  1  0  0  0  0
 41 42  2  0  0  0  0
 42 43  1  0  0  0  0
 43 44  2  0  0  0  0
 44 45  1  0  0  0  0
 45 46  2  0  0  0  0
M  END
>  <Supplier>
www.ambinter.com

>  <Ambinter_reference>
Amb35823276

>  <MW>
600.72

$$$$
Amb35823277
 OpenBabel08272101522D

 89 94  0  0  1  0  0  0  0  0999 V2000
    7.3979    1.3633    0.0000 Ca  0  2  0  0  0 15  0  0  0  0  0  0
   36.3304  -13.1625    0.0000 C   0  0  0  0  0  0  0  0  0  0  0  0
   34.3413  -12.9534    0.0000 C   0  0  0  0  0  0  0  0  0  0  0  0
   33.5278  -11.1263    0.0000 C   0  0  0  0  0  0  0  0  0  0  0  0
   33.1657  -14.5714    0.0000 C   0  0  0  0  0  0  0  0  0  0  0  0
   33.7838  -16.4736    0.0000 C   0  0  0  0  0  0  0  0  0  0  0  0
   32.1657  -17.6491    0.0000 C   0  0  0  0  0  0  0  0  0  0  0  0
   30.5477  -16.4736    0.0000 C   0  0  0  0  0  0  0  0  0  0  0  0
   28.6456  -17.0916    0.0000 C   0  0  0  0  0  0  0  0  0  0  0  0
   28.2298  -19.0479    0.0000 C   0  0  0  0  0  0  0  0  0  0  0  0
   26.3277  -19.6659    0.0000 C   0  0  0  0  0  0  0  0  0  0  0  0
   24.8414  -18.3277    0.0000 C   0  0  0  0  0  0  0  0  0  0  0  0
   22.9393  -18.9457    0.0000 F   0  0  0  0  0  0  0  0  0  0  0  0
   25.2572  -16.3714    0.0000 C   0  0  0  0  0  0  0  0  0  0  0  0
   27.1593  -15.7533    0.0000 C   0  0  0  0  0  0  0  0  0  0  0  0
   31.1657  -14.5714    0.0000 N   0  0  0  0  0  0  0  0  0  0  0  0
   29.9902  -12.9534    0.0000 C   0  0  0  0  0  0  0  0  0  0  0  0
   30.8037  -11.1263    0.0000 C   0  0  0  0  0  0  0  0  0  0  0  0
   29.6281   -9.5083    0.0000 C   0  0  1  0  0  0  0  0  0  0  0  0
   27.8010   -8.6948    0.0000 H   0  0  0  0  0  0  0  0  0  0  0  0
   28.0100  -10.6839    0.0000 O   0  0  0  0  0  0  0  0  0  0  0  0
   30.4416   -7.6812    0.0000 C   0  0  0  0  0  0  0  0  0  0  0  0
   29.2660   -6.0632    0.0000 C   0  0  2  0  0  0  0  0  0  0  0  0
   30.8840   -4.8876    0.0000 H   0  0  0  0  0  0  0  0  0  0  0  0
   28.0904   -4.4451    0.0000 C   0  0  0  0  0  0  0  0  0  0  0  0
   28.9039   -2.6180    0.0000 C   0  0  0  0  0  0  0  0  0  0  0  0
   30.8929   -2.4090    0.0000 O   0  5  0  0  0  0  0  0  0  0  0  0
   27.7283   -1.0000    0.0000 O   0  0  0  0  0  0  0  0  0  0  0  0
   27.6479   -7.2387    0.0000 O   0  0  0  0  0  0  0  0  0  0  0  0
   25.8209   -6.4253    0.0000 C   0  0  0  0  0  0  0  0  0  0  0  0
   32.1657  -19.6491    0.0000 C   0  0  0  0  0  0  0  0  0  0  0  0
   33.8978  -20.6491    0.0000 C   0  0  0  0  0  0  0  0  0  0  0  0
   33.8978  -22.6491    0.0000 C   0  0  0  0  0  0  0  0  0  0  0  0
   32.1657  -23.6491    0.0000 C   0  0  0  0  0  0  0  0  0  0  0  0
   30.4337  -22.6491    0.0000 C   0  0  0  0  0  0  0  0  0  0  0  0
   30.4337  -20.6491    0.0000 C   0  0  0  0  0  0  0  0  0  0  0  0
   35.6859  -17.0916    0.0000 C   0  0  0  0  0  0  0  0  0  0  0  0
   36.1017  -19.0479    0.0000 O   0  0  0  0  0  0  0  0  0  0  0  0
   37.1722  -15.7533    0.0000 N   0  0  0  0  0  0  0  0  0  0  0  0
   39.0743  -16.3714    0.0000 C   0  0  0  0  0  0  0  0  0  0  0  0
   39.4901  -18.3277    0.0000 C   0  0  0  0  0  0  0  0  0  0  0  0
   41.3922  -18.9457    0.0000 C   0  0  0  0  0  0  0  0  0  0  0  0
   42.8785  -17.6074    0.0000 C   0  0  0  0  0  0  0  0  0  0  0  0
   42.4627  -15.6511    0.0000 C   0  0  0  0  0  0  0  0  0  0  0  0
   40.5606  -15.0331    0.0000 C   0  0  0  0  0  0  0  0  0  0  0  0
    1.0000  -27.6491    0.0000 C   0  0  0  0  0  0  0  0  0  0  0  0
    1.0000  -27.6491    0.0000 C   0  0  0  0  0  0  0  0  0  0  0  0
    1.0000  -27.6491    0.0000 C   0  0  0  0  0  0  0  0  0  0  0  0
    1.0000  -27.6491    0.0000 C   0  0  0  0  0  0  0  0  0  0  0  0
    1.0000  -27.6491    0.0000 C   0  0  0  0  0  0  0  0  0  0  0  0
    1.0000  -27.6491    0.0000 C   0  0  0  0  0  0  0  0  0  0  0  0
    1.0000  -27.6491    0.0000 C   0  0  0  0  0  0  0  0  0  0  0  0
    1.0000  -27.6491    0.0000 C   0  0  0  0  0  0  0  0  0  0  0  0
    1.0000  -27.6491    0.0000 C   0  0  0  0  0  0  0  0  0  0  0  0
    1.0000  -27.6491    0.0000 C   0  0  0  0  0  0  0  0  0  0  0  0
    1.0000  -27.6491    0.0000 C   0  0  0  0  0  0  0  0  0  0  0  0
    1.0000  -27.6491    0.0000 F   0  0  0  0  0  0  0  0  0  0  0  0
    1.0000  -27.6491    0.0000 C   0  0  0  0  0  0  0  0  0  0  0  0
    1.0000  -27.6491    0.0000 C   0  0  0  0  0  0  0  0  0  0  0  0
    1.0000  -27.6491    0.0000 N   0  0  0  0  0  0  0  0  0  0  0  0
    1.0000  -27.6491    0.0000 C   0  0  0  0  0  0  0  0  0  0  0  0
    1.0000  -27.6491    0.0000 C   0  0  0  0  0  0  0  0  0  0  0  0
    1.0000  -27.6491    0.0000 C   0  0  1  0  0  0  0  0  0  0  0  0
    1.0000  -27.6491    0.0000 H   0  0  0  0  0  0  0  0  0  0  0  0
    1.0000  -27.6491    0.0000 O   0  0  0  0  0  0  0  0  0  0  0  0
    1.0000  -27.6491    0.0000 C   0  0  0  0  0  0  0  0  0  0  0  0
    1.0000  -27.6491    0.0000 C   0  0  2  0  0  0  0  0  0  0  0  0
    1.0000  -27.6491    0.0000 H   0  0  0  0  0  0  0  0  0  0  0  0
    1.0000  -27.6491    0.0000 C   0  0  0  0  0  0  0  0  0  0  0  0
    1.0000  -27.6491    0.0000 C   0  0  0  0  0  0  0  0  0  0  0  0
    1.0000  -27.6491    0.0000 O   0  5  0  0  0  0  0  0  0  0  0  0
    1.0000  -27.6491    0.0000 O   0  0  0  0  0  0  0  0  0  0  0  0
    1.0000  -27.6491    0.0000 O   0  0  0  0  0  0  0  0  0  0  0  0
    1.0000  -27.6491    0.0000 C   0  0  0  0  0  0  0  0  0  0  0  0
    1.0000  -27.6491    0.0000 C   0  0  0  0  0  0  0  0  0  0  0  0
    1.0000  -27.6491    0.0000 C   0  0  0  0  0  0  0  0  0  0  0  0
    1.0000  -27.6491    0.0000 C   0  0  0  0  0  0  0  0  0  0  0  0
    1.0000  -27.6491    0.0000 C   0  0  0  0  0  0  0  0  0  0  0  0
    1.0000  -27.6491    0.0000 C   0  0  0  0  0  0  0  0  0  0  0  0
    1.0000  -27.6491    0.0000 C   0  0  0  0  0  0  0  0  0  0  0  0
    1.0000  -27.6491    0.0000 C   0  0  0  0  0  0  0  0  0  0  0  0
    1.0000  -27.6491    0.0000 O   0  0  0  0  0  0  0  0  0  0  0  0
    1.0000  -27.6491    0.0000 N   0  0  0  0  0  0  0  0  0  0  0  0
    1.0000  -27.6491    0.0000 C   0  0  0  0  0  0  0  0  0  0  0  0
    1.0000  -27.6491    0.0000 C   0  0  0  0  0  0  0  0  0  0  0  0
    1.0000  -27.6491    0.0000 C   0  0  0  0  0  0  0  0  0  0  0  0
    1.0000  -27.6491    0.0000 C   0  0  0  0  0  0  0  0  0  0  0  0
    1.0000  -27.6491    0.0000 C   0  0  0  0  0  0  0  0  0  0  0  0
    1.0000  -27.6491    0.0000 C   0  0  0  0  0  0  0  0  0  0  0  0
  2  3  1  0  0  0  0
  3  4  1  0  0  0  0
  3  5  1  0  0  0  0
  5 16  1  0  0  0  0
  5  6  2  0  0  0  0
  6  7  1  0  0  0  0
  6 37  1  0  0  0  0
  7  8  2  0  0  0  0
  7 31  1  0  0  0  0
  8  9  1  0  0  0  0
  8 16  1  0  0  0  0
  9 15  1  0  0  0  0
  9 10  2  0  0  0  0
 10 11  1  0  0  0  0
 11 12  2  0  0  0  0
 12 13  1  0  0  0  0
 12 14  1  0  0  0  0
 14 15  2  0  0  0  0
 16 17  1  0  0  0  0
 17 18  1  0  0  0  0
 18 19  1  0  0  0  0
 19 20  1  6  0  0  0
 19 21  1  0  0  0  0
 19 22  1  0  0  0  0
 22 23  1  0  0  0  0
 23 24  1  6  0  0  0
 23 25  1  0  0  0  0
 23 29  1  0  0  0  0
 25 26  1  0  0  0  0
 26 27  1  0  0  0  0
 26 28  2  0  0  0  0
 29 30  1  0  0  0  0
 31 36  1  0  0  0  0
 31 32  2  0  0  0  0
 32 33  1  0  0  0  0
 33 34  2  0  0  0  0
 34 35  1  0  0  0  0
 35 36  2  0  0  0  0
 37 38  2  0  0  0  0
 37 39  1  0  0  0  0
 39 40  1  0  0  0  0
 40 45  1  0  0  0  0
 40 41  2  0  0  0  0
 41 42  1  0  0  0  0
 42 43  2  0  0  0  0
 43 44  1  0  0  0  0
 44 45  2  0  0  0  0
 46 47  1  0  0  0  0
 47 48  1  0  0  0  0
 47 49  1  0  0  0  0
 49 60  1  0  0  0  0
 49 50  2  0  0  0  0
 50 51  1  0  0  0  0
 50 81  1  0  0  0  0
 51 52  2  0  0  0  0
 51 75  1  0  0  0  0
 52 53  1  0  0  0  0
 52 60  1  0  0  0  0
 53 59  1  0  0  0  0
 53 54  2  0  0  0  0
 54 55  1  0  0  0  0
 55 56  2  0  0  0  0
 56 57  1  0  0  0  0
 56 58  1  0  0  0  0
 58 59  2  0  0  0  0
 60 61  1  0  0  0  0
 61 62  1  0  0  0  0
 62 63  1  0  0  0  0
 63 64  1  1  0  0  0
 63 65  1  0  0  0  0
 63 66  1  0  0  0  0
 66 67  1  0  0  0  0
 67 68  1  1  0  0  0
 67 69  1  0  0  0  0
 67 73  1  0  0  0  0
 69 70  1  0  0  0  0
 70 71  1  0  0  0  0
 70 72  2  0  0  0  0
 73 74  1  0  0  0  0
 75 80  1  0  0  0  0
 75 76  2  0  0  0  0
 76 77  1  0  0  0  0
 77 78  2  0  0  0  0
 78 79  1  0  0  0  0
 79 80  2  0  0  0  0
 81 82  2  0  0  0  0
 81 83  1  0  0  0  0
 83 84  1  0  0  0  0
 84 89  1  0  0  0  0
 84 85  2  0  0  0  0
 85 86  1  0  0  0  0
 86 87  2  0  0  0  0
 87 88  1  0  0  0  0
 88 89  2  0  0  0  0
M  CHG  3   1   2  27  -1  71  -1
M  END
>  <Supplier>
www.ambinter.com

>  <Ambinter_reference>
Amb35823277

>  <MW>
1183.39

$$$$
Amb36278860
 OpenBabel08272101522D

 44 45  0  0  1  0  0  0  0  0999 V2000
   13.6856   -0.5000    0.0000 Na  0  3  0  0  0 15  0  0  0  0  0  0
   -2.3577    0.3766    0.0000 Na  0  3  0  0  0 15  0  0  0  0  0  0
    3.7741   -5.7433    0.0000 C   0  0  0  0  0  0  0  0  0  0  0  0
    4.7686   -5.8479    0.0000 C   0  0  0  0  0  0  0  0  0  0  0  0
    5.1753   -6.7614    0.0000 C   0  0  0  0  0  0  0  0  0  0  0  0
    5.3564   -5.0388    0.0000 C   0  0  0  0  0  0  0  0  0  0  0  0
    5.0474   -4.0878    0.0000 C   0  0  0  0  0  0  0  0  0  0  0  0
    4.0963   -3.7788    0.0000 C   0  0  0  0  0  0  0  0  0  0  0  0
    3.8884   -2.8006    0.0000 O   0  0  0  0  0  0  0  0  0  0  0  0
    3.3532   -4.4479    0.0000 N   0  0  0  0  0  0  0  0  0  0  0  0
    2.4021   -4.1389    0.0000 C   0  0  0  0  0  0  0  0  0  0  0  0
    1.6590   -4.8080    0.0000 C   0  0  0  0  0  0  0  0  0  0  0  0
    0.7079   -4.4990    0.0000 C   0  0  0  0  0  0  0  0  0  0  0  0
    0.5000   -3.5208    0.0000 C   0  0  0  0  0  0  0  0  0  0  0  0
    1.2431   -2.8517    0.0000 C   0  0  0  0  0  0  0  0  0  0  0  0
    2.1942   -3.1607    0.0000 C   0  0  0  0  0  0  0  0  0  0  0  0
    2.9373   -2.4916    0.0000 O   0  5  0  0  0  0  0  0  0  0  0  0
    5.8564   -3.5000    0.0000 C   0  0  0  0  0  0  0  0  0  0  0  0
    5.8564   -2.5000    0.0000 C   0  0  0  0  0  0  0  0  0  0  0  0
    4.9904   -2.0000    0.0000 C   0  0  0  0  0  0  0  0  0  0  0  0
    4.9904   -1.0000    0.0000 C   0  0  0  0  0  0  0  0  0  0  0  0
    5.8564   -0.5000    0.0000 C   0  0  0  0  0  0  0  0  0  0  0  0
    6.7224   -1.0000    0.0000 C   0  0  0  0  0  0  0  0  0  0  0  0
    6.7224   -2.0000    0.0000 C   0  0  0  0  0  0  0  0  0  0  0  0
    6.6654   -4.0878    0.0000 C   0  0  0  0  0  0  0  0  0  0  0  0
    7.6165   -3.7788    0.0000 C   0  0  0  0  0  0  0  0  0  0  0  0
    7.8244   -2.8006    0.0000 C   0  0  0  0  0  0  0  0  0  0  0  0
    8.7754   -2.4916    0.0000 C   0  0  0  0  0  0  0  0  0  0  0  0
    9.5186   -3.1607    0.0000 C   0  0  0  0  0  0  0  0  0  0  0  0
   10.4696   -2.8517    0.0000 F   0  0  0  0  0  0  0  0  0  0  0  0
    9.3107   -4.1389    0.0000 C   0  0  0  0  0  0  0  0  0  0  0  0
    8.3596   -4.4479    0.0000 C   0  0  0  0  0  0  0  0  0  0  0  0
    6.3564   -5.0388    0.0000 N   0  0  0  0  0  0  0  0  0  0  0  0
    6.9442   -5.8479    0.0000 C   0  0  0  0  0  0  0  0  0  0  0  0
    7.9387   -5.7433    0.0000 C   0  0  0  0  0  0  0  0  0  0  0  0
    8.5265   -6.5523    0.0000 C   0  0  3  0  0  0  0  0  0  0  0  0
    8.1197   -7.4659    0.0000 O   0  0  0  0  0  0  0  0  0  0  0  0
    9.5210   -6.4478    0.0000 C   0  0  0  0  0  0  0  0  0  0  0  0
   10.1088   -7.2568    0.0000 C   0  0  3  0  0  0  0  0  0  0  0  0
    9.7021   -8.1704    0.0000 O   0  0  0  0  0  0  0  0  0  0  0  0
   11.1033   -7.1523    0.0000 C   0  0  0  0  0  0  0  0  0  0  0  0
   11.6911   -7.9613    0.0000 C   0  0  0  0  0  0  0  0  0  0  0  0
   11.2844   -8.8749    0.0000 O   0  5  0  0  0  0  0  0  0  0  0  0
   12.6856   -7.8568    0.0000 O   0  0  0  0  0  0  0  0  0  0  0  0
  3  4  1  0  0  0  0
  4  5  1  0  0  0  0
  4  6  1  0  0  0  0
  6 33  1  0  0  0  0
  6  7  2  0  0  0  0
  7  8  1  0  0  0  0
  7 18  1  0  0  0  0
  8  9  2  0  0  0  0
  8 10  1  0  0  0  0
 10 11  1  0  0  0  0
 11 16  1  0  0  0  0
 11 12  2  0  0  0  0
 12 13  1  0  0  0  0
 13 14  2  0  0  0  0
 14 15  1  0  0  0  0
 15 16  2  0  0  0  0
 16 17  1  0  0  0  0
 18 19  1  0  0  0  0
 18 25  2  0  0  0  0
 19 24  1  0  0  0  0
 19 20  2  0  0  0  0
 20 21  1  0  0  0  0
 21 22  2  0  0  0  0
 22 23  1  0  0  0  0
 23 24  2  0  0  0  0
 25 26  1  0  0  0  0
 25 33  1  0  0  0  0
 26 32  1  0  0  0  0
 26 27  2  0  0  0  0
 27 28  1  0  0  0  0
 28 29  2  0  0  0  0
 29 30  1  0  0  0  0
 29 31  1  0  0  0  0
 31 32  2  0  0  0  0
 33 34  1  0  0  0  0
 34 35  1  0  0  0  0
 35 36  1  0  0  0  0
 36 37  1  0  0  0  0
 36 38  1  0  0  0  0
 38 39  1  0  0  0  0
 39 40  1  0  0  0  0
 39 41  1  0  0  0  0
 41 42  1  0  0  0  0
 42 43  1  0  0  0  0
 42 44  2  0  0  0  0
M  CHG  4   1   1   2   1  17  -1  43  -1
M  END
>  <Supplier>
www.ambinter.com

>  <Ambinter_reference>
Amb36278860

>  <MW>
618.603

$$$$
Amb535780
 OpenBabel08272101522D

 87 92  0  0  1  0  0  0  0  0999 V2000
    3.0354   -6.9826    0.0000 O   0  0  0  0  0  0  0  0  0  0  0  0
    3.8444   -7.5704    0.0000 C   0  0  1  0  0  0  0  0  0  0  0  0
    3.2566   -8.3794    0.0000 H   0  0  0  0  0  0  0  0  0  0  0  0
    4.6534   -8.1582    0.0000 C   0  0  0  0  0  0  0  0  0  0  0  0
    4.5489   -9.1527    0.0000 C   0  0  2  0  0  0  0  0  0  0  0  0
    4.9556  -10.0663    0.0000 H   0  0  0  0  0  0  0  0  0  0  0  0
    3.6354   -9.5595    0.0000 C   0  0  0  0  0  0  0  0  0  0  0  0
    3.5308  -10.5540    0.0000 C   0  0  0  0  0  0  0  0  0  0  0  0
    2.6173  -10.9607    0.0000 O   0  0  0  0  0  0  0  0  0  0  0  0
    4.3398  -11.1418    0.0000 O   0  5  0  0  0  0  0  0  0  0  0  0
    5.5434   -9.2573    0.0000 O   0  0  0  0  0  0  0  0  0  0  0  0
    4.4322   -6.7614    0.0000 C   0  0  0  0  0  0  0  0  0  0  0  0
    4.0255   -5.8479    0.0000 C   0  0  0  0  0  0  0  0  0  0  0  0
    4.6132   -5.0388    0.0000 N   0  0  0  0  0  0  0  0  0  0  0  0
    5.6132   -5.0388    0.0000 C   0  0  0  0  0  0  0  0  0  0  0  0
    6.2010   -5.8479    0.0000 C   0  0  0  0  0  0  0  0  0  0  0  0
    7.1956   -5.7433    0.0000 C   0  0  0  0  0  0  0  0  0  0  0  0
    5.7943   -6.7614    0.0000 C   0  0  0  0  0  0  0  0  0  0  0  0
    5.9223   -4.0878    0.0000 C   0  0  0  0  0  0  0  0  0  0  0  0
    5.1132   -3.5000    0.0000 C   0  0  0  0  0  0  0  0  0  0  0  0
    4.3042   -4.0878    0.0000 C   0  0  0  0  0  0  0  0  0  0  0  0
    3.3532   -3.7788    0.0000 C   0  0  0  0  0  0  0  0  0  0  0  0
    3.1453   -2.8006    0.0000 C   0  0  0  0  0  0  0  0  0  0  0  0
    2.1942   -2.4916    0.0000 C   0  0  0  0  0  0  0  0  0  0  0  0
    1.4511   -3.1607    0.0000 C   0  0  0  0  0  0  0  0  0  0  0  0
    1.6590   -4.1389    0.0000 C   0  0  0  0  0  0  0  0  0  0  0  0
    2.6100   -4.4479    0.0000 C   0  0  0  0  0  0  0  0  0  0  0  0
    0.5000   -2.8517    0.0000 F   0  0  0  0  0  0  0  0  0  0  0  0
    5.1132   -2.5000    0.0000 C   0  0  0  0  0  0  0  0  0  0  0  0
    5.9793   -2.0000    0.0000 C   0  0  0  0  0  0  0  0  0  0  0  0
    5.9793   -1.0000    0.0000 C   0  0  0  0  0  0  0  0  0  0  0  0
    5.1132   -0.5000    0.0000 C   0  0  0  0  0  0  0  0  0  0  0  0
    4.2472   -1.0000    0.0000 C   0  0  0  0  0  0  0  0  0  0  0  0
    4.2472   -2.0000    0.0000 C   0  0  0  0  0  0  0  0  0  0  0  0
    6.8733   -3.7788    0.0000 C   0  0  0  0  0  0  0  0  0  0  0  0
    7.0812   -2.8006    0.0000 O   0  0  0  0  0  0  0  0  0  0  0  0
    7.6165   -4.4479    0.0000 N   0  0  0  0  0  0  0  0  0  0  0  0
    8.5675   -4.1389    0.0000 C   0  0  0  0  0  0  0  0  0  0  0  0
    9.3107   -4.8080    0.0000 C   0  0  0  0  0  0  0  0  0  0  0  0
   10.2617   -4.4990    0.0000 C   0  0  0  0  0  0  0  0  0  0  0  0
   10.4696   -3.5208    0.0000 C   0  0  0  0  0  0  0  0  0  0  0  0
    9.7265   -2.8517    0.0000 C   0  0  0  0  0  0  0  0  0  0  0  0
    8.7754   -3.1607    0.0000 C   0  0  0  0  0  0  0  0  0  0  0  0
   17.2858   -8.1582    0.0000 O   0  0  0  0  0  0  0  0  0  0  0  0
   18.0949   -7.5704    0.0000 C   0  0  1  0  0  0  0  0  0  0  0  0
   18.6826   -8.3794    0.0000 H   0  0  0  0  0  0  0  0  0  0  0  0
   18.9039   -6.9826    0.0000 C   0  0  0  0  0  0  0  0  0  0  0  0
   19.8174   -7.3894    0.0000 C   0  0  2  0  0  0  0  0  0  0  0  0
   20.4052   -8.1984    0.0000 H   0  0  0  0  0  0  0  0  0  0  0  0
   20.6264   -6.8016    0.0000 C   0  0  0  0  0  0  0  0  0  0  0  0
   21.5400   -7.2083    0.0000 C   0  0  0  0  0  0  0  0  0  0  0  0
   22.3490   -6.6205    0.0000 O   0  0  0  0  0  0  0  0  0  0  0  0
   21.6445   -8.2028    0.0000 O   0  5  0  0  0  0  0  0  0  0  0  0
   19.4107   -8.3029    0.0000 O   0  0  0  0  0  0  0  0  0  0  0  0
   17.5071   -6.7614    0.0000 C   0  0  0  0  0  0  0  0  0  0  0  0
   17.9138   -5.8479    0.0000 C   0  0  0  0  0  0  0  0  0  0  0  0
   17.3260   -5.0388    0.0000 N   0  0  0  0  0  0  0  0  0  0  0  0
   16.3260   -5.0388    0.0000 C   0  0  0  0  0  0  0  0  0  0  0  0
   15.7382   -5.8479    0.0000 C   0  0  0  0  0  0  0  0  0  0  0  0
   14.7437   -5.7433    0.0000 C   0  0  0  0  0  0  0  0  0  0  0  0
   16.1450   -6.7614    0.0000 C   0  0  0  0  0  0  0  0  0  0  0  0
   16.0170   -4.0878    0.0000 C   0  0  0  0  0  0  0  0  0  0  0  0
   16.8260   -3.5000    0.0000 C   0  0  0  0  0  0  0  0  0  0  0  0
   17.6350   -4.0878    0.0000 C   0  0  0  0  0  0  0  0  0  0  0  0
   18.5861   -3.7788    0.0000 C   0  0  0  0  0  0  0  0  0  0  0  0
   18.7940   -2.8006    0.0000 C   0  0  0  0  0  0  0  0  0  0  0  0
   19.7451   -2.4916    0.0000 C   0  0  0  0  0  0  0  0  0  0  0  0
   20.4882   -3.1607    0.0000 C   0  0  0  0  0  0  0  0  0  0  0  0
   20.2803   -4.1389    0.0000 C   0  0  0  0  0  0  0  0  0  0  0  0
   19.3292   -4.4479    0.0000 C   0  0  0  0  0  0  0  0  0  0  0  0
   21.4393   -2.8517    0.0000 F   0  0  0  0  0  0  0  0  0  0  0  0
   16.8260   -2.5000    0.0000 C   0  0  0  0  0  0  0  0  0  0  0  0
   15.9600   -2.0000    0.0000 C   0  0  0  0  0  0  0  0  0  0  0  0
   15.9600   -1.0000    0.0000 C   0  0  0  0  0  0  0  0  0  0  0  0
   16.8260   -0.5000    0.0000 C   0  0  0  0  0  0  0  0  0  0  0  0
   17.6920   -1.0000    0.0000 C   0  0  0  0  0  0  0  0  0  0  0  0
   17.6920   -2.0000    0.0000 C   0  0  0  0  0  0  0  0  0  0  0  0
   15.0659   -3.7788    0.0000 C   0  0  0  0  0  0  0  0  0  0  0  0
   14.8580   -2.8006    0.0000 O   0  0  0  0  0  0  0  0  0  0  0  0
   14.3228   -4.4479    0.0000 N   0  0  0  0  0  0  0  0  0  0  0  0
   13.3717   -4.1389    0.0000 C   0  0  0  0  0  0  0  0  0  0  0  0
   12.6286   -4.8080    0.0000 C   0  0  0  0  0  0  0  0  0  0  0  0
   11.6775   -4.4990    0.0000 C   0  0  0  0  0  0  0  0  0  0  0  0
   11.4696   -3.5208    0.0000 C   0  0  0  0  0  0  0  0  0  0  0  0
   12.2128   -2.8517    0.0000 C   0  0  0  0  0  0  0  0  0  0  0  0
   13.1638   -3.1607    0.0000 C   0  0  0  0  0  0  0  0  0  0  0  0
    2.3454    1.8872    0.0000 Ca  0  2  0  0  0 15  0  0  0  0  0  0
  1  2  1  0  0  0  0
  2  3  1  1  0  0  0
  2  4  1  0  0  0  0
  2 12  1  0  0  0  0
  4  5  1  0  0  0  0
  5  6  1  6  0  0  0
  5  7  1  0  0  0  0
  5 11  1  0  0  0  0
  7  8  1  0  0  0  0
  8  9  2  0  0  0  0
  8 10  1  0  0  0  0
 12 13  1  0  0  0  0
 13 14  1  0  0  0  0
 14 21  1  0  0  0  0
 14 15  1  0  0  0  0
 15 16  1  0  0  0  0
 15 19  2  0  0  0  0
 16 17  1  0  0  0  0
 16 18  1  0  0  0  0
 19 20  1  0  0  0  0
 19 35  1  0  0  0  0
 20 21  2  0  0  0  0
 20 29  1  0  0  0  0
 21 22  1  0  0  0  0
 22 27  1  0  0  0  0
 22 23  2  0  0  0  0
 23 24  1  0  0  0  0
 24 25  2  0  0  0  0
 25 26  1  0  0  0  0
 25 28  1  0  0  0  0
 26 27  2  0  0  0  0
 29 34  1  0  0  0  0
 29 30  2  0  0  0  0
 30 31  1  0  0  0  0
 31 32  2  0  0  0  0
 32 33  1  0  0  0  0
 33 34  2  0  0  0  0
 35 36  2  0  0  0  0
 35 37  1  0  0  0  0
 37 38  1  0  0  0  0
 38 43  1  0  0  0  0
 38 39  2  0  0  0  0
 39 40  1  0  0  0  0
 40 41  2  0  0  0  0
 41 42  1  0  0  0  0
 42 43  2  0  0  0  0
 44 45  1  0  0  0  0
 45 46  1  1  0  0  0
 45 47  1  0  0  0  0
 45 55  1  0  0  0  0
 47 48  1  0  0  0  0
 48 49  1  1  0  0  0
 48 50  1  0  0  0  0
 48 54  1  0  0  0  0
 50 51  1  0  0  0  0
 51 52  2  0  0  0  0
 51 53  1  0  0  0  0
 55 56  1  0  0  0  0
 56 57  1  0  0  0  0
 57 64  1  0  0  0  0
 57 58  1  0  0  0  0
 58 59  1  0  0  0  0
 58 62  2  0  0  0  0
 59 60  1  0  0  0  0
 59 61  1  0  0  0  0
 62 63  1  0  0  0  0
 62 78  1  0  0  0  0
 63 64  2  0  0  0  0
 63 72  1  0  0  0  0
 64 65  1  0  0  0  0
 65 70  1  0  0  0  0
 65 66  2  0  0  0  0
 66 67  1  0  0  0  0
 67 68  2  0  0  0  0
 68 69  1  0  0  0  0
 68 71  1  0  0  0  0
 69 70  2  0  0  0  0
 72 77  1  0  0  0  0
 72 73  2  0  0  0  0
 73 74  1  0  0  0  0
 74 75  2  0  0  0  0
 75 76  1  0  0  0  0
 76 77  2  0  0  0  0
 78 79  2  0  0  0  0
 78 80  1  0  0  0  0
 80 81  1  0  0  0  0
 81 86  1  0  0  0  0
 81 82  2  0  0  0  0
 82 83  1  0  0  0  0
 83 84  2  0  0  0  0
 84 85  1  0  0  0  0
 85 86  2  0  0  0  0
M  CHG  3  10  -1  53  -1  87   2
M  END
>  <Supplier>
www.ambinter.com

>  <Ambinter_reference>
Amb535780

>  <MW>
1155.34

$$$$
Amb815624
 OpenBabel08272101522D

 43 46  0  0  1  0  0  0  0  0999 V2000
    4.1220   -4.9975    0.0000 O   0  0  0  0  0  0  0  0  0  0  0  0
    4.9310   -4.4097    0.0000 C   0  0  1  0  0  0  0  0  0  0  0  0
    5.5188   -5.2187    0.0000 H   0  0  0  0  0  0  0  0  0  0  0  0
    5.7400   -3.8219    0.0000 C   0  0  0  0  0  0  0  0  0  0  0  0
    6.6536   -4.2286    0.0000 C   0  0  2  0  0  0  0  0  0  0  0  0
    7.2414   -5.0377    0.0000 H   0  0  0  0  0  0  0  0  0  0  0  0
    7.4626   -3.6409    0.0000 C   0  0  0  0  0  0  0  0  0  0  0  0
    8.3761   -4.0476    0.0000 C   0  0  0  0  0  0  0  0  0  0  0  0
    9.1852   -3.4598    0.0000 O   0  0  0  0  0  0  0  0  0  0  0  0
    8.4807   -5.0421    0.0000 O   0  5  0  0  0  0  0  0  0  0  0  0
    6.2468   -5.1422    0.0000 O   0  0  0  0  0  0  0  0  0  0  0  0
    4.3432   -3.6007    0.0000 C   0  0  0  0  0  0  0  0  0  0  0  0
    4.7500   -2.6871    0.0000 C   0  0  0  0  0  0  0  0  0  0  0  0
    4.1622   -1.8781    0.0000 N   0  0  0  0  0  0  0  0  0  0  0  0
    3.1622   -1.8781    0.0000 C   0  0  0  0  0  0  0  0  0  0  0  0
    2.5744   -2.6871    0.0000 C   0  0  0  0  0  0  0  0  0  0  0  0
    1.5799   -2.5826    0.0000 C   0  0  0  0  0  0  0  0  0  0  0  0
    2.9811   -3.6007    0.0000 C   0  0  0  0  0  0  0  0  0  0  0  0
    2.8532   -0.9271    0.0000 C   0  0  0  0  0  0  0  0  0  0  0  0
    3.6622   -0.3393    0.0000 C   0  0  0  0  0  0  0  0  0  0  0  0
    4.4712   -0.9271    0.0000 C   0  0  0  0  0  0  0  0  0  0  0  0
    5.4223   -0.6180    0.0000 C   0  0  0  0  0  0  0  0  0  0  0  0
    5.6302    0.3601    0.0000 C   0  0  0  0  0  0  0  0  0  0  0  0
    6.5812    0.6691    0.0000 C   0  0  0  0  0  0  0  0  0  0  0  0
    7.3244   -0.0000    0.0000 C   0  0  0  0  0  0  0  0  0  0  0  0
    7.1165   -0.9781    0.0000 C   0  0  0  0  0  0  0  0  0  0  0  0
    6.1654   -1.2872    0.0000 C   0  0  0  0  0  0  0  0  0  0  0  0
    8.2754    0.3090    0.0000 F   0  0  0  0  0  0  0  0  0  0  0  0
    3.6622    0.6607    0.0000 C   0  0  0  0  0  0  0  0  0  0  0  0
    2.7962    1.1607    0.0000 C   0  0  0  0  0  0  0  0  0  0  0  0
    2.7962    2.1607    0.0000 C   0  0  0  0  0  0  0  0  0  0  0  0
    3.6622    2.6607    0.0000 C   0  0  0  0  0  0  0  0  0  0  0  0
    4.5282    2.1607    0.0000 C   0  0  0  0  0  0  0  0  0  0  0  0
    4.5282    1.1607    0.0000 C   0  0  0  0  0  0  0  0  0  0  0  0
    1.9021   -0.6180    0.0000 C   0  0  0  0  0  0  0  0  0  0  0  0
    1.6942    0.3601    0.0000 O   0  0  0  0  0  0  0  0  0  0  0  0
    1.1590   -1.2872    0.0000 N   0  0  0  0  0  0  0  0  0  0  0  0
    0.2079   -0.9781    0.0000 C   0  0  0  0  0  0  0  0  0  0  0  0
   -0.5352   -1.6473    0.0000 C   0  0  0  0  0  0  0  0  0  0  0  0
   -1.4863   -1.3383    0.0000 C   0  0  0  0  0  0  0  0  0  0  0  0
   -1.6942   -0.3601    0.0000 C   0  0  0  0  0  0  0  0  0  0  0  0
   -0.9511    0.3090    0.0000 C   0  0  0  0  0  0  0  0  0  0  0  0
    0.0000    0.0000    0.0000 C   0  0  0  0  0  0  0  0  0  0  0  0
  1  2  1  0  0  0  0
  2  3  1  1  0  0  0
  2  4  1  0  0  0  0
  2 12  1  0  0  0  0
  4  5  1  0  0  0  0
  5  6  1  1  0  0  0
  5  7  1  0  0  0  0
  5 11  1  0  0  0  0
  7  8  1  0  0  0  0
  8  9  2  0  0  0  0
  8 10  1  0  0  0  0
 12 13  1  0  0  0  0
 13 14  1  0  0  0  0
 14 21  1  0  0  0  0
 14 15  1  0  0  0  0
 15 16  1  0  0  0  0
 15 19  2  0  0  0  0
 16 17  1  0  0  0  0
 16 18  1  0  0  0  0
 19 20  1  0  0  0  0
 19 35  1  0  0  0  0
 20 21  2  0  0  0  0
 20 29  1  0  0  0  0
 21 22  1  0  0  0  0
 22 27  1  0  0  0  0
 22 23  2  0  0  0  0
 23 24  1  0  0  0  0
 24 25  2  0  0  0  0
 25 26  1  0  0  0  0
 25 28  1  0  0  0  0
 26 27  2  0  0  0  0
 29 34  1  0  0  0  0
 29 30  2  0  0  0  0
 30 31  1  0  0  0  0
 31 32  2  0  0  0  0
 32 33  1  0  0  0  0
 33 34  2  0  0  0  0
 35 36  2  0  0  0  0
 35 37  1  0  0  0  0
 37 38  1  0  0  0  0
 38 43  1  0  0  0  0
 38 39  2  0  0  0  0
 39 40  1  0  0  0  0
 40 41  2  0  0  0  0
 41 42  1  0  0  0  0
 42 43  2  0  0  0  0
M  CHG  1  10  -1
M  END
>  <Supplier>
www.ambinter.com

>  <Ambinter_reference>
Amb815624

>  <MW>
557.632

$$$$
Amb831773
 OpenBabel08272101522D

 43 45  0  0  1  0  0  0  0  0999 V2000
    6.3162   -8.1582    0.0000 O   0  0  0  0  0  0  0  0  0  0  0  0
    7.1252   -7.5704    0.0000 C   0  0  1  0  0  0  0  0  0  0  0  0
    7.7130   -8.3794    0.0000 H   0  0  0  0  0  0  0  0  0  0  0  0
    7.9342   -6.9826    0.0000 C   0  0  0  0  0  0  0  0  0  0  0  0
    8.8478   -7.3894    0.0000 C   0  0  3  0  0  0  0  0  0  0  0  0
    9.6568   -6.8016    0.0000 C   0  0  0  0  0  0  0  0  0  0  0  0
   10.5703   -7.2083    0.0000 C   0  0  0  0  0  0  0  0  0  0  0  0
   11.3794   -6.6205    0.0000 O   0  0  0  0  0  0  0  0  0  0  0  0
   10.6749   -8.2028    0.0000 O   0  5  0  0  0  0  0  0  0  0  0  0
    8.9523   -8.3839    0.0000 O   0  0  0  0  0  0  0  0  0  0  0  0
    6.5374   -6.7614    0.0000 C   0  0  0  0  0  0  0  0  0  0  0  0
    6.9442   -5.8479    0.0000 C   0  0  0  0  0  0  0  0  0  0  0  0
    6.3564   -5.0388    0.0000 N   0  0  0  0  0  0  0  0  0  0  0  0
    5.3564   -5.0388    0.0000 C   0  0  0  0  0  0  0  0  0  0  0  0
    4.7686   -5.8479    0.0000 C   0  0  0  0  0  0  0  0  0  0  0  0
    3.7741   -5.7433    0.0000 C   0  0  0  0  0  0  0  0  0  0  0  0
    5.1753   -6.7614    0.0000 C   0  0  0  0  0  0  0  0  0  0  0  0
    5.0474   -4.0878    0.0000 C   0  0  0  0  0  0  0  0  0  0  0  0
    5.8564   -3.5000    0.0000 C   0  0  0  0  0  0  0  0  0  0  0  0
    6.6654   -4.0878    0.0000 C   0  0  0  0  0  0  0  0  0  0  0  0
    7.6165   -3.7788    0.0000 C   0  0  0  0  0  0  0  0  0  0  0  0
    7.8244   -2.8006    0.0000 C   0  0  0  0  0  0  0  0  0  0  0  0
    8.7754   -2.4916    0.0000 C   0  0  0  0  0  0  0  0  0  0  0  0
    9.5186   -3.1607    0.0000 C   0  0  0  0  0  0  0  0  0  0  0  0
    9.3107   -4.1389    0.0000 C   0  0  0  0  0  0  0  0  0  0  0  0
    8.3596   -4.4479    0.0000 C   0  0  0  0  0  0  0  0  0  0  0  0
   10.4696   -2.8517    0.0000 F   0  0  0  0  0  0  0  0  0  0  0  0
    5.8564   -2.5000    0.0000 C   0  0  0  0  0  0  0  0  0  0  0  0
    4.9904   -2.0000    0.0000 C   0  0  0  0  0  0  0  0  0  0  0  0
    4.9904   -1.0000    0.0000 C   0  0  0  0  0  0  0  0  0  0  0  0
    5.8564   -0.5000    0.0000 C   0  0  0  0  0  0  0  0  0  0  0  0
    6.7224   -1.0000    0.0000 C   0  0  0  0  0  0  0  0  0  0  0  0
    6.7224   -2.0000    0.0000 C   0  0  0  0  0  0  0  0  0  0  0  0
    4.0963   -3.7788    0.0000 C   0  0  0  0  0  0  0  0  0  0  0  0
    3.8884   -2.8006    0.0000 O   0  0  0  0  0  0  0  0  0  0  0  0
    3.3532   -4.4479    0.0000 N   0  0  0  0  0  0  0  0  0  0  0  0
    2.4021   -4.1389    0.0000 C   0  0  0  0  0  0  0  0  0  0  0  0
    1.6590   -4.8080    0.0000 C   0  0  0  0  0  0  0  0  0  0  0  0
    0.7079   -4.4990    0.0000 C   0  0  0  0  0  0  0  0  0  0  0  0
    0.5000   -3.5208    0.0000 C   0  0  0  0  0  0  0  0  0  0  0  0
    1.2431   -2.8517    0.0000 C   0  0  0  0  0  0  0  0  0  0  0  0
    2.1942   -3.1607    0.0000 C   0  0  0  0  0  0  0  0  0  0  0  0
   -3.5401   -0.6343    0.0000 Ca  0  3  0  0  0 15  0  0  0  0  0  0
  1  2  1  0  0  0  0
  2  3  1  1  0  0  0
  2  4  1  0  0  0  0
  2 11  1  0  0  0  0
  4  5  1  0  0  0  0
  5  6  1  0  0  0  0
  5 10  1  0  0  0  0
  6  7  1  0  0  0  0
  7  8  2  0  0  0  0
  7  9  1  0  0  0  0
 11 12  1  0  0  0  0
 12 13  1  0  0  0  0
 13 20  1  0  0  0  0
 13 14  1  0  0  0  0
 14 15  1  0  0  0  0
 14 18  2  0  0  0  0
 15 16  1  0  0  0  0
 15 17  1  0  0  0  0
 18 19  1  0  0  0  0
 18 34  1  0  0  0  0
 19 20  2  0  0  0  0
 19 28  1  0  0  0  0
 20 21  1  0  0  0  0
 21 26  1  0  0  0  0
 21 22  2  0  0  0  0
 22 23  1  0  0  0  0
 23 24  2  0  0  0  0
 24 25  1  0  0  0  0
 24 27  1  0  0  0  0
 25 26  2  0  0  0  0
 28 33  1  0  0  0  0
 28 29  2  0  0  0  0
 29 30  1  0  0  0  0
 30 31  2  0  0  0  0
 31 32  1  0  0  0  0
 32 33  2  0  0  0  0
 34 35  2  0  0  0  0
 34 36  1  0  0  0  0
 36 37  1  0  0  0  0
 37 42  1  0  0  0  0
 37 38  2  0  0  0  0
 38 39  1  0  0  0  0
 39 40  2  0  0  0  0
 40 41  1  0  0  0  0
 41 42  2  0  0  0  0
M  CHG  2   9  -1  43   1
M  END
>  <Supplier>
www.ambinter.com

>  <Ambinter_reference>
Amb831773

>  <MW>
597.71

$$$$
Amb8383905
 OpenBabel08272101522D

 48 52  0  0  1  0  0  0  0  0999 V2000
   -4.2038   -3.0542    0.0000 C   0  0  0  0  0  0  0  0  0  0  0  0
   -3.7970   -2.1407    0.0000 C   0  0  0  0  0  0  0  0  0  0  0  0
   -2.8025   -2.0361    0.0000 C   0  0  0  0  0  0  0  0  0  0  0  0
   -2.3958   -1.1226    0.0000 C   0  0  0  0  0  0  0  0  0  0  0  0
   -1.4013   -1.0181    0.0000 O   0  0  0  0  0  0  0  0  0  0  0  0
   -0.8135   -1.8271    0.0000 C   0  0  0  0  0  0  0  0  0  0  0  0
   -1.2202   -2.7406    0.0000 O   0  0  0  0  0  0  0  0  0  0  0  0
    0.1810   -1.7226    0.0000 C   0  0  0  0  0  0  0  0  0  0  0  0
    0.5878   -0.8090    0.0000 C   0  0  3  0  0  0  0  0  0  0  0  0
    1.5823   -0.7045    0.0000 C   0  0  0  0  0  0  0  0  0  0  0  0
    1.9890    0.2091    0.0000 C   0  0  3  0  0  0  0  0  0  0  0  0
    2.9836    0.3136    0.0000 C   0  0  0  0  0  0  0  0  0  0  0  0
    3.3903    1.2271    0.0000 C   0  0  0  0  0  0  0  0  0  0  0  0
    4.3848    1.3317    0.0000 N   0  0  0  0  0  0  0  0  0  0  0  0
    5.0540    0.5885    0.0000 C   0  0  0  0  0  0  0  0  0  0  0  0
    4.8460   -0.3896    0.0000 C   0  0  0  0  0  0  0  0  0  0  0  0
    5.5892   -1.0588    0.0000 C   0  0  0  0  0  0  0  0  0  0  0  0
    3.8950   -0.6987    0.0000 C   0  0  0  0  0  0  0  0  0  0  0  0
    5.9675    0.9953    0.0000 C   0  0  0  0  0  0  0  0  0  0  0  0
    5.8630    1.9898    0.0000 C   0  0  0  0  0  0  0  0  0  0  0  0
    4.8848    2.1977    0.0000 C   0  0  0  0  0  0  0  0  0  0  0  0
    4.4781    3.1112    0.0000 C   0  0  0  0  0  0  0  0  0  0  0  0
    5.0659    3.9202    0.0000 C   0  0  0  0  0  0  0  0  0  0  0  0
    4.6591    4.8338    0.0000 C   0  0  0  0  0  0  0  0  0  0  0  0
    3.6646    4.9383    0.0000 C   0  0  0  0  0  0  0  0  0  0  0  0
    3.0768    4.1293    0.0000 C   0  0  0  0  0  0  0  0  0  0  0  0
    3.4836    3.2158    0.0000 C   0  0  0  0  0  0  0  0  0  0  0  0
    3.2579    5.8519    0.0000 F   0  0  0  0  0  0  0  0  0  0  0  0
    6.6061    2.6589    0.0000 C   0  0  0  0  0  0  0  0  0  0  0  0
    7.5572    2.3499    0.0000 C   0  0  0  0  0  0  0  0  0  0  0  0
    8.3003    3.0190    0.0000 C   0  0  0  0  0  0  0  0  0  0  0  0
    8.0924    3.9972    0.0000 C   0  0  0  0  0  0  0  0  0  0  0  0
    7.1413    4.3062    0.0000 C   0  0  0  0  0  0  0  0  0  0  0  0
    6.3982    3.6371    0.0000 C   0  0  0  0  0  0  0  0  0  0  0  0
    6.8335    0.4953    0.0000 C   0  0  0  0  0  0  0  0  0  0  0  0
    7.6996    0.9953    0.0000 O   0  0  0  0  0  0  0  0  0  0  0  0
    6.8335   -0.5047    0.0000 N   0  0  0  0  0  0  0  0  0  0  0  0
    7.6996   -1.0047    0.0000 C   0  0  0  0  0  0  0  0  0  0  0  0
    7.6996   -2.0047    0.0000 C   0  0  0  0  0  0  0  0  0  0  0  0
    8.5656   -2.5047    0.0000 C   0  0  0  0  0  0  0  0  0  0  0  0
    9.4316   -2.0047    0.0000 C   0  0  0  0  0  0  0  0  0  0  0  0
    9.4316   -1.0047    0.0000 C   0  0  0  0  0  0  0  0  0  0  0  0
    8.5656   -0.5047    0.0000 C   0  0  0  0  0  0  0  0  0  0  0  0
    1.4013    1.0181    0.0000 O   0  0  0  0  0  0  0  0  0  0  0  0
    0.4067    0.9135    0.0000 C   0  0  0  0  0  0  0  0  0  0  0  0
   -0.0000   -0.0000    0.0000 O   0  0  0  0  0  0  0  0  0  0  0  0
   -0.5068    1.3203    0.0000 C   0  0  0  0  0  0  0  0  0  0  0  0
    0.3022    1.9081    0.0000 C   0  0  0  0  0  0  0  0  0  0  0  0
  1  2  1  0  0  0  0
  2  3  1  0  0  0  0
  3  4  1  0  0  0  0
  4  5  1  0  0  0  0
  5  6  1  0  0  0  0
  6  7  2  0  0  0  0
  6  8  1  0  0  0  0
  8  9  1  0  0  0  0
  9 46  1  0  0  0  0
  9 10  1  0  0  0  0
 10 11  1  0  0  0  0
 11 12  1  0  0  0  0
 11 44  1  0  0  0  0
 12 13  1  0  0  0  0
 13 14  1  0  0  0  0
 14 21  1  0  0  0  0
 14 15  1  0  0  0  0
 15 16  1  0  0  0  0
 15 19  2  0  0  0  0
 16 17  1  0  0  0  0
 16 18  1  0  0  0  0
 19 20  1  0  0  0  0
 19 35  1  0  0  0  0
 20 21  2  0  0  0  0
 20 29  1  0  0  0  0
 21 22  1  0  0  0  0
 22 27  1  0  0  0  0
 22 23  2  0  0  0  0
 23 24  1  0  0  0  0
 24 25  2  0  0  0  0
 25 26  1  0  0  0  0
 25 28  1  0  0  0  0
 26 27  2  0  0  0  0
 29 34  1  0  0  0  0
 29 30  2  0  0  0  0
 30 31  1  0  0  0  0
 31 32  2  0  0  0  0
 32 33  1  0  0  0  0
 33 34  2  0  0  0  0
 35 36  2  0  0  0  0
 35 37  1  0  0  0  0
 37 38  1  0  0  0  0
 38 43  1  0  0  0  0
 38 39  2  0  0  0  0
 39 40  1  0  0  0  0
 40 41  2  0  0  0  0
 41 42  1  0  0  0  0
 42 43  2  0  0  0  0
 44 45  1  0  0  0  0
 45 46  1  0  0  0  0
 45 47  1  0  0  0  0
 45 48  1  0  0  0  0
M  END
>  <Supplier>
www.ambinter.com

>  <Ambinter_reference>
Amb8383905

>  <MW>
654.81

$$$$
Amb8384035
 OpenBabel08272101522D

 37 41  0  0  0  0  0  0  0  0999 V2000
   -7.7749   -4.5832    0.0000 F   0  0  0  0  0  0  0  0  0  0  0  0
   -6.9659   -3.9954    0.0000 C   0  0  0  0  0  0  0  0  0  0  0  0
   -6.0523   -4.4021    0.0000 C   0  0  0  0  0  0  0  0  0  0  0  0
   -5.2433   -3.8144    0.0000 C   0  0  0  0  0  0  0  0  0  0  0  0
   -5.3479   -2.8198    0.0000 C   0  0  0  0  0  0  0  0  0  0  0  0
   -6.2614   -2.4131    0.0000 C   0  0  0  0  0  0  0  0  0  0  0  0
   -7.0704   -3.0009    0.0000 C   0  0  0  0  0  0  0  0  0  0  0  0
   -4.5388   -2.2321    0.0000 C   0  0  0  0  0  0  0  0  0  0  0  0
   -3.5878   -2.5411    0.0000 C   0  0  0  0  0  0  0  0  0  0  0  0
   -3.2788   -3.4921    0.0000 C   0  0  0  0  0  0  0  0  0  0  0  0
   -3.9479   -4.2353    0.0000 C   0  0  0  0  0  0  0  0  0  0  0  0
   -3.6389   -5.1863    0.0000 C   0  0  0  0  0  0  0  0  0  0  0  0
   -2.6607   -5.3942    0.0000 C   0  0  0  0  0  0  0  0  0  0  0  0
   -1.9916   -4.6511    0.0000 C   0  0  0  0  0  0  0  0  0  0  0  0
   -2.3006   -3.7000    0.0000 C   0  0  0  0  0  0  0  0  0  0  0  0
   -3.0000   -1.7321    0.0000 C   0  0  0  0  0  0  0  0  0  0  0  0
   -3.5878   -0.9230    0.0000 C   0  0  0  0  0  0  0  0  0  0  0  0
   -4.5388   -1.2321    0.0000 N   0  0  0  0  0  0  0  0  0  0  0  0
   -5.3479   -0.6443    0.0000 C   0  0  0  0  0  0  0  0  0  0  0  0
   -5.2433    0.3503    0.0000 C   0  0  0  0  0  0  0  0  0  0  0  0
   -6.0523    0.9380    0.0000 C   0  0  0  0  0  0  0  0  0  0  0  0
   -6.0523    1.9380    0.0000 O   0  0  0  0  0  0  0  0  0  0  0  0
   -7.0034    2.2471    0.0000 C   0  0  0  0  0  0  0  0  0  0  0  0
   -7.5912    1.4380    0.0000 C   0  0  0  0  0  0  0  0  0  0  0  0
   -7.0034    0.6290    0.0000 O   0  0  0  0  0  0  0  0  0  0  0  0
   -3.2788    0.0280    0.0000 C   0  0  0  0  0  0  0  0  0  0  0  0
   -3.9479    0.7712    0.0000 C   0  0  0  0  0  0  0  0  0  0  0  0
   -2.3006    0.2359    0.0000 C   0  0  0  0  0  0  0  0  0  0  0  0
   -2.0000   -1.7321    0.0000 C   0  0  0  0  0  0  0  0  0  0  0  0
   -1.5000   -2.5981    0.0000 O   0  0  0  0  0  0  0  0  0  0  0  0
   -1.5000   -0.8660    0.0000 N   0  0  0  0  0  0  0  0  0  0  0  0
   -0.5000   -0.8660    0.0000 C   0  0  0  0  0  0  0  0  0  0  0  0
    0.0000   -1.7321    0.0000 C   0  0  0  0  0  0  0  0  0  0  0  0
    1.0000   -1.7321    0.0000 C   0  0  0  0  0  0  0  0  0  0  0  0
    1.5000   -0.8660    0.0000 C   0  0  0  0  0  0  0  0  0  0  0  0
    1.0000    0.0000    0.0000 C   0  0  0  0  0  0  0  0  0  0  0  0
    0.0000    0.0000    0.0000 C   0  0  0  0  0  0  0  0  0  0  0  0
  1  2  1  0  0  0  0
  2  7  1  0  0  0  0
  2  3  2  0  0  0  0
  3  4  1  0  0  0  0
  4  5  2  0  0  0  0
  5  6  1  0  0  0  0
  5  8  1  0  0  0  0
  6  7  2  0  0  0  0
  8 18  1  0  0  0  0
  8  9  2  0  0  0  0
  9 10  1  0  0  0  0
  9 16  1  0  0  0  0
 10 15  1  0  0  0  0
 10 11  2  0  0  0  0
 11 12  1  0  0  0  0
 12 13  2  0  0  0  0
 13 14  1  0  0  0  0
 14 15  2  0  0  0  0
 16 17  2  0  0  0  0
 16 29  1  0  0  0  0
 17 18  1  0  0  0  0
 17 26  1  0  0  0  0
 18 19  1  0  0  0  0
 19 20  1  0  0  0  0
 20 21  1  0  0  0  0
 21 25  1  0  0  0  0
 21 22  1  0  0  0  0
 22 23  1  0  0  0  0
 23 24  1  0  0  0  0
 24 25  1  0  0  0  0
 26 27  1  0  0  0  0
 26 28  1  0  0  0  0
 29 30  2  0  0  0  0
 29 31  1  0  0  0  0
 31 32  1  0  0  0  0
 32 37  1  0  0  0  0
 32 33  2  0  0  0  0
 33 34  1  0  0  0  0
 34 35  2  0  0  0  0
 35 36  1  0  0  0  0
 36 37  2  0  0  0  0
M  END
>  <Supplier>
www.ambinter.com

>  <Ambinter_reference>
Amb8384035

>  <MW>
498.588

$$$$
Amb8397332
 OpenBabel08272101522D

 45 47  0  0  1  0  0  0  0  0999 V2000
    4.8587   -2.1269    0.0000 O   0  0  0  0  0  0  0  0  0  0  0  0
    4.0497   -2.7147    0.0000 C   0  0  1  0  0  0  0  0  0  0  0  0
    3.4619   -1.9057    0.0000 H   0  0  0  0  0  0  0  0  0  0  0  0
    3.2406   -3.3025    0.0000 C   0  0  0  0  0  0  0  0  0  0  0  0
    2.3271   -2.8958    0.0000 C   0  0  2  0  0  0  0  0  0  0  0  0
    1.3326   -3.0003    0.0000 H   0  0  0  0  0  0  0  0  0  0  0  0
    2.2226   -1.9013    0.0000 C   0  0  0  0  0  0  0  0  0  0  0  0
    1.3090   -1.4945    0.0000 C   0  0  0  0  0  0  0  0  0  0  0  0
    1.2045   -0.5000    0.0000 O   0  0  0  0  0  0  0  0  0  0  0  0
    0.5000   -2.0823    0.0000 O   0  5  0  0  0  0  0  0  0  0  0  0
    1.9204   -3.8093    0.0000 O   0  0  0  0  0  0  0  0  0  0  0  0
    4.6374   -3.5237    0.0000 C   0  0  0  0  0  0  0  0  0  0  0  0
    5.6320   -3.4192    0.0000 C   0  0  0  0  0  0  0  0  0  0  0  0
    6.2197   -4.2282    0.0000 N   0  0  0  0  0  0  0  0  0  0  0  0
    7.2197   -4.2282    0.0000 C   0  0  0  0  0  0  0  0  0  0  0  0
    7.8075   -3.4192    0.0000 C   0  0  0  0  0  0  0  0  0  0  0  0
    8.8021   -3.5237    0.0000 C   0  0  0  0  0  0  0  0  0  0  0  0
    7.4008   -2.5057    0.0000 C   0  0  0  0  0  0  0  0  0  0  0  0
    7.5288   -5.1793    0.0000 C   0  0  0  0  0  0  0  0  0  0  0  0
    6.7197   -5.7671    0.0000 C   0  0  0  0  0  0  0  0  0  0  0  0
    5.9107   -5.1793    0.0000 C   0  0  0  0  0  0  0  0  0  0  0  0
    4.9597   -5.4883    0.0000 C   0  0  0  0  0  0  0  0  0  0  0  0
    4.7518   -6.4665    0.0000 C   0  0  0  0  0  0  0  0  0  0  0  0
    3.8007   -6.7755    0.0000 C   0  0  0  0  0  0  0  0  0  0  0  0
    3.0576   -6.1063    0.0000 C   0  0  0  0  0  0  0  0  0  0  0  0
    3.2655   -5.1282    0.0000 C   0  0  0  0  0  0  0  0  0  0  0  0
    4.2165   -4.8192    0.0000 C   0  0  0  0  0  0  0  0  0  0  0  0
    2.1065   -6.4154    0.0000 F   0  0  0  0  0  0  0  0  0  0  0  0
    6.7197   -6.7671    0.0000 C   0  0  0  0  0  0  0  0  0  0  0  0
    7.5858   -7.2671    0.0000 C   0  0  0  0  0  0  0  0  0  0  0  0
    7.5858   -8.2671    0.0000 C   0  0  0  0  0  0  0  0  0  0  0  0
    6.7197   -8.7671    0.0000 C   0  0  0  0  0  0  0  0  0  0  0  0
    5.8537   -8.2671    0.0000 C   0  0  0  0  0  0  0  0  0  0  0  0
    5.8537   -7.2671    0.0000 C   0  0  0  0  0  0  0  0  0  0  0  0
    8.4798   -5.4883    0.0000 C   0  0  0  0  0  0  0  0  0  0  0  0
    8.6877   -6.4665    0.0000 O   0  0  0  0  0  0  0  0  0  0  0  0
    9.2230   -4.8192    0.0000 N   0  0  0  0  0  0  0  0  0  0  0  0
   10.1740   -5.1282    0.0000 C   0  0  0  0  0  0  0  0  0  0  0  0
   10.9172   -4.4591    0.0000 C   0  0  0  0  0  0  0  0  0  0  0  0
   11.8682   -4.7681    0.0000 C   0  0  0  0  0  0  0  0  0  0  0  0
   12.0761   -5.7462    0.0000 C   0  0  0  0  0  0  0  0  0  0  0  0
   11.3330   -6.4154    0.0000 C   0  0  0  0  0  0  0  0  0  0  0  0
   10.3819   -6.1063    0.0000 C   0  0  0  0  0  0  0  0  0  0  0  0
   13.0272   -6.0552    0.0000 O   0  0  0  0  0  0  0  0  0  0  0  0
    1.0416   -0.7084    0.0000 Ca  0  2  0  0  0 15  0  0  0  0  0  0
  1  2  1  0  0  0  0
  2  3  1  1  0  0  0
  2  4  1  0  0  0  0
  2 12  1  0  0  0  0
  4  5  1  0  0  0  0
  5  6  1  6  0  0  0
  5  7  1  0  0  0  0
  5 11  1  0  0  0  0
  7  8  1  0  0  0  0
  8  9  2  0  0  0  0
  8 10  1  0  0  0  0
 12 13  1  0  0  0  0
 13 14  1  0  0  0  0
 14 21  1  0  0  0  0
 14 15  1  0  0  0  0
 15 16  1  0  0  0  0
 15 19  2  0  0  0  0
 16 17  1  0  0  0  0
 16 18  1  0  0  0  0
 19 20  1  0  0  0  0
 19 35  1  0  0  0  0
 20 21  2  0  0  0  0
 20 29  1  0  0  0  0
 21 22  1  0  0  0  0
 22 27  1  0  0  0  0
 22 23  2  0  0  0  0
 23 24  1  0  0  0  0
 24 25  2  0  0  0  0
 25 26  1  0  0  0  0
 25 28  1  0  0  0  0
 26 27  2  0  0  0  0
 29 34  1  0  0  0  0
 29 30  2  0  0  0  0
 30 31  1  0  0  0  0
 31 32  2  0  0  0  0
 32 33  1  0  0  0  0
 33 34  2  0  0  0  0
 35 36  2  0  0  0  0
 35 37  1  0  0  0  0
 37 38  1  0  0  0  0
 38 43  1  0  0  0  0
 38 39  2  0  0  0  0
 39 40  1  0  0  0  0
 40 41  2  0  0  0  0
 41 42  1  0  0  0  0
 41 44  1  0  0  0  0
 42 43  2  0  0  0  0
M  CHG  2  10  -1  45   2
M  END
>  <Supplier>
www.ambinter.com

>  <Ambinter_reference>
Amb8397332

>  <MW>
613.709

$$$$
Amb8397335
 OpenBabel08272101522D

 50 52  0  0  1  0  0  0  0  0999 V2000
    6.2065   -9.9760    0.0000 O   0  0  0  0  0  0  0  0  0  0  0  0
    7.0002   -9.3993    0.0000 C   0  0  1  0  0  0  0  0  0  0  0  0
    7.5769  -10.1930    0.0000 H   0  0  0  0  0  0  0  0  0  0  0  0
    7.7940   -8.8226    0.0000 C   0  0  0  0  0  0  0  0  0  0  0  0
    8.6903   -9.2216    0.0000 C   0  0  2  0  0  0  0  0  0  0  0  0
    9.2670  -10.0154    0.0000 H   0  0  0  0  0  0  0  0  0  0  0  0
    9.4840   -8.6450    0.0000 C   0  0  0  0  0  0  0  0  0  0  0  0
   10.3803   -9.0440    0.0000 C   0  0  0  0  0  0  0  0  0  0  0  0
   11.1741   -8.4673    0.0000 O   0  0  0  0  0  0  0  0  0  0  0  0
   10.4829  -10.0198    0.0000 O   0  5  0  0  0  0  0  0  0  0  0  0
    8.2912  -10.1180    0.0000 O   0  0  0  0  0  0  0  0  0  0  0  0
    6.4235   -8.6055    0.0000 C   0  0  0  0  0  0  0  0  0  0  0  0
    6.8226   -7.7092    0.0000 C   0  0  0  0  0  0  0  0  0  0  0  0
    6.2459   -6.9155    0.0000 N   0  0  0  0  0  0  0  0  0  0  0  0
    5.2648   -6.9155    0.0000 C   0  0  0  0  0  0  0  0  0  0  0  0
    4.6881   -7.7092    0.0000 C   0  0  0  0  0  0  0  0  0  0  0  0
    3.7123   -7.6067    0.0000 C   0  0  0  0  0  0  0  0  0  0  0  0
    5.0871   -8.6055    0.0000 C   0  0  0  0  0  0  0  0  0  0  0  0
    4.9616   -5.9824    0.0000 C   0  0  0  0  0  0  0  0  0  0  0  0
    5.7553   -5.4057    0.0000 C   0  0  0  0  0  0  0  0  0  0  0  0
    6.5491   -5.9824    0.0000 C   0  0  0  0  0  0  0  0  0  0  0  0
    7.4822   -5.6792    0.0000 C   0  0  0  0  0  0  0  0  0  0  0  0
    7.6862   -4.7195    0.0000 C   0  0  0  0  0  0  0  0  0  0  0  0
    8.6193   -4.4163    0.0000 C   0  0  0  0  0  0  0  0  0  0  0  0
    9.3484   -5.0728    0.0000 C   0  0  0  0  0  0  0  0  0  0  0  0
    9.1444   -6.0325    0.0000 C   0  0  0  0  0  0  0  0  0  0  0  0
    8.2113   -6.3357    0.0000 C   0  0  0  0  0  0  0  0  0  0  0  0
   10.2815   -4.7696    0.0000 F   0  0  0  0  0  0  0  0  0  0  0  0
    5.7553   -3.4434    0.0000 C   0  0  0  0  0  0  0  0  0  0  0  0
    4.9056   -2.9528    0.0000 C   0  0  0  0  0  0  0  0  0  0  0  0
    4.0560   -3.4434    0.0000 H   0  0  0  0  0  0  0  0  0  0  0  0
    4.9056   -1.9717    0.0000 C   0  0  0  0  0  0  0  0  0  0  0  0
    4.0560   -1.4811    0.0000 H   0  0  0  0  0  0  0  0  0  0  0  0
    5.7553   -1.4811    0.0000 C   0  0  0  0  0  0  0  0  0  0  0  0
    6.6050   -1.9717    0.0000 C   0  0  0  0  0  0  0  0  0  0  0  0
    6.6050   -2.9528    0.0000 C   0  0  0  0  0  0  0  0  0  0  0  0
    7.4547   -3.4434    0.0000 H   0  0  0  0  0  0  0  0  0  0  0  0
    7.4547   -1.4811    0.0000 H   0  0  0  0  0  0  0  0  0  0  0  0
    5.7553   -0.5000    0.0000 H   0  0  0  0  0  0  0  0  0  0  0  0
    4.0285   -5.6792    0.0000 C   0  0  0  0  0  0  0  0  0  0  0  0
    3.8245   -4.7195    0.0000 O   0  0  0  0  0  0  0  0  0  0  0  0
    3.2993   -6.3357    0.0000 N   0  0  0  0  0  0  0  0  0  0  0  0
    2.3662   -6.0325    0.0000 C   0  0  0  0  0  0  0  0  0  0  0  0
    1.6371   -6.6890    0.0000 C   0  0  0  0  0  0  0  0  0  0  0  0
    0.7040   -6.3858    0.0000 C   0  0  0  0  0  0  0  0  0  0  0  0
    0.5000   -5.4261    0.0000 C   0  0  0  0  0  0  0  0  0  0  0  0
    1.2291   -4.7696    0.0000 C   0  0  0  0  0  0  0  0  0  0  0  0
    2.1622   -5.0728    0.0000 C   0  0  0  0  0  0  0  0  0  0  0  0
    2.8914   -4.4163    0.0000 O   0  0  0  0  0  0  0  0  0  0  0  0
   -3.7246   -0.8385    0.0000 Ca  0  2  0  0  0 15  0  0  0  0  0  0
  1  2  1  0  0  0  0
  2  3  1  1  0  0  0
  2  4  1  0  0  0  0
  2 12  1  0  0  0  0
  4  5  1  0  0  0  0
  5  6  1  1  0  0  0
  5  7  1  0  0  0  0
  5 11  1  0  0  0  0
  7  8  1  0  0  0  0
  8  9  2  0  0  0  0
  8 10  1  0  0  0  0
 12 13  1  0  0  0  0
 13 14  1  0  0  0  0
 14 21  1  0  0  0  0
 14 15  1  0  0  0  0
 15 16  1  0  0  0  0
 15 19  2  0  0  0  0
 16 17  1  0  0  0  0
 16 18  1  0  0  0  0
 19 20  1  0  0  0  0
 19 40  1  0  0  0  0
 20 21  2  0  0  0  0
 20 29  1  0  0  0  0
 21 22  1  0  0  0  0
 22 27  1  0  0  0  0
 22 23  2  0  0  0  0
 23 24  1  0  0  0  0
 24 25  2  0  0  0  0
 25 26  1  0  0  0  0
 25 28  1  0  0  0  0
 26 27  2  0  0  0  0
 29 36  1  0  0  0  0
 29 30  2  0  0  0  0
 30 31  1  0  0  0  0
 30 32  1  0  0  0  0
 32 33  1  0  0  0  0
 32 34  2  0  0  0  0
 34 35  1  0  0  0  0
 34 39  1  0  0  0  0
 35 36  2  0  0  0  0
 35 38  1  0  0  0  0
 36 37  1  0  0  0  0
 40 41  2  0  0  0  0
 40 42  1  0  0  0  0
 42 43  1  0  0  0  0
 43 48  1  0  0  0  0
 43 44  2  0  0  0  0
 44 45  1  0  0  0  0
 45 46  2  0  0  0  0
 46 47  1  0  0  0  0
 47 48  2  0  0  0  0
 48 49  1  0  0  0  0
M  ISO  5  31   2  33   2  37   2  38   2  39   2
M  CHG  2  10  -1  50   2
M  END
>  <Supplier>
www.ambinter.com

>  <Ambinter_reference>
Amb8397335

>  <MW>
618.74

$$$$
Amb8628246
 OpenBabel08272101522D

 51 55  0  0  1  0  0  0  0  0999 V2000
   -2.3855   -2.4028    0.0000 O   0  0  0  0  0  0  0  0  0  0  0  0
   -1.6084   -1.7734    0.0000 C   0  0  0  0  0  0  0  0  0  0  0  0
   -0.6748   -2.1318    0.0000 O   0  0  0  0  0  0  0  0  0  0  0  0
   -0.5184   -3.1195    0.0000 C   0  0  0  0  0  0  0  0  0  0  0  0
    0.1109   -3.8966    0.0000 C   0  0  0  0  0  0  0  0  0  0  0  0
    0.4693   -2.9631    0.0000 C   0  0  0  0  0  0  0  0  0  0  0  0
   -1.2955   -3.7488    0.0000 C   0  0  0  0  0  0  0  0  0  0  0  0
   -1.7648   -0.7858    0.0000 C   0  0  0  0  0  0  0  0  0  0  0  0
   -0.9877   -0.1564    0.0000 C   0  0  1  0  0  0  0  0  0  0  0  0
   -0.8313   -1.1441    0.0000 H   0  0  0  0  0  0  0  0  0  0  0  0
   -1.6170    0.6207    0.0000 C   0  0  0  0  0  0  0  0  0  0  0  0
   -1.2586    1.5543    0.0000 C   0  0  1  0  0  0  0  0  0  0  0  0
   -0.7815    2.4331    0.0000 H   0  0  0  0  0  0  0  0  0  0  0  0
   -2.2532    1.6588    0.0000 C   0  0  0  0  0  0  0  0  0  0  0  0
   -2.6599    2.5724    0.0000 C   0  0  0  0  0  0  0  0  0  0  0  0
   -3.6544    2.6769    0.0000 N   0  0  0  0  0  0  0  0  0  0  0  0
   -4.3236    1.9337    0.0000 C   0  0  0  0  0  0  0  0  0  0  0  0
   -4.1156    0.9556    0.0000 C   0  0  0  0  0  0  0  0  0  0  0  0
   -4.8588    0.2865    0.0000 C   0  0  0  0  0  0  0  0  0  0  0  0
   -3.1646    0.6466    0.0000 C   0  0  0  0  0  0  0  0  0  0  0  0
   -5.2371    2.3405    0.0000 C   0  0  0  0  0  0  0  0  0  0  0  0
   -5.1326    3.3350    0.0000 C   0  0  0  0  0  0  0  0  0  0  0  0
   -4.1544    3.5429    0.0000 C   0  0  0  0  0  0  0  0  0  0  0  0
   -3.7477    4.4565    0.0000 C   0  0  0  0  0  0  0  0  0  0  0  0
   -4.3355    5.2655    0.0000 C   0  0  0  0  0  0  0  0  0  0  0  0
   -3.9287    6.1790    0.0000 C   0  0  0  0  0  0  0  0  0  0  0  0
   -2.9342    6.2836    0.0000 C   0  0  0  0  0  0  0  0  0  0  0  0
   -2.3464    5.4745    0.0000 C   0  0  0  0  0  0  0  0  0  0  0  0
   -2.7532    4.5610    0.0000 C   0  0  0  0  0  0  0  0  0  0  0  0
   -2.5275    7.1971    0.0000 F   0  0  0  0  0  0  0  0  0  0  0  0
   -5.8757    4.0041    0.0000 C   0  0  0  0  0  0  0  0  0  0  0  0
   -6.8268    3.6951    0.0000 C   0  0  0  0  0  0  0  0  0  0  0  0
   -7.5699    4.3643    0.0000 C   0  0  0  0  0  0  0  0  0  0  0  0
   -7.3620    5.3424    0.0000 C   0  0  0  0  0  0  0  0  0  0  0  0
   -6.4109    5.6514    0.0000 C   0  0  0  0  0  0  0  0  0  0  0  0
   -5.6678    4.9823    0.0000 C   0  0  0  0  0  0  0  0  0  0  0  0
   -6.1031    1.8405    0.0000 C   0  0  0  0  0  0  0  0  0  0  0  0
   -6.9691    2.3405    0.0000 O   0  0  0  0  0  0  0  0  0  0  0  0
   -6.1031    0.8405    0.0000 N   0  0  0  0  0  0  0  0  0  0  0  0
   -6.9691    0.3405    0.0000 C   0  0  0  0  0  0  0  0  0  0  0  0
   -6.9691   -0.6595    0.0000 C   0  0  0  0  0  0  0  0  0  0  0  0
   -7.8352   -1.1595    0.0000 C   0  0  0  0  0  0  0  0  0  0  0  0
   -8.7012   -0.6595    0.0000 C   0  0  0  0  0  0  0  0  0  0  0  0
   -8.7012    0.3405    0.0000 C   0  0  0  0  0  0  0  0  0  0  0  0
   -7.8352    0.8405    0.0000 C   0  0  0  0  0  0  0  0  0  0  0  0
   -9.5672   -1.1595    0.0000 O   0  0  0  0  0  0  0  0  0  0  0  0
   -0.2710    1.7107    0.0000 O   0  0  0  0  0  0  0  0  0  0  0  0
    0.3584    0.9336    0.0000 C   0  0  0  0  0  0  0  0  0  0  0  0
    0.0000   -0.0000    0.0000 O   0  0  0  0  0  0  0  0  0  0  0  0
    1.2919    0.5752    0.0000 C   0  0  0  0  0  0  0  0  0  0  0  0
    1.1355    1.5629    0.0000 C   0  0  0  0  0  0  0  0  0  0  0  0
  1  2  2  0  0  0  0
  2  3  1  0  0  0  0
  2  8  1  0  0  0  0
  3  4  1  0  0  0  0
  4  5  1  0  0  0  0
  4  6  1  0  0  0  0
  4  7  1  0  0  0  0
  8  9  1  0  0  0  0
  9 10  1  6  0  0  0
  9 49  1  0  0  0  0
  9 11  1  0  0  0  0
 11 12  1  0  0  0  0
 12 13  1  6  0  0  0
 12 14  1  0  0  0  0
 12 47  1  0  0  0  0
 14 15  1  0  0  0  0
 15 16  1  0  0  0  0
 16 23  1  0  0  0  0
 16 17  1  0  0  0  0
 17 18  1  0  0  0  0
 17 21  2  0  0  0  0
 18 19  1  0  0  0  0
 18 20  1  0  0  0  0
 21 22  1  0  0  0  0
 21 37  1  0  0  0  0
 22 23  2  0  0  0  0
 22 31  1  0  0  0  0
 23 24  1  0  0  0  0
 24 29  1  0  0  0  0
 24 25  2  0  0  0  0
 25 26  1  0  0  0  0
 26 27  2  0  0  0  0
 27 28  1  0  0  0  0
 27 30  1  0  0  0  0
 28 29  2  0  0  0  0
 31 36  1  0  0  0  0
 31 32  2  0  0  0  0
 32 33  1  0  0  0  0
 33 34  2  0  0  0  0
 34 35  1  0  0  0  0
 35 36  2  0  0  0  0
 37 38  2  0  0  0  0
 37 39  1  0  0  0  0
 39 40  1  0  0  0  0
 40 45  1  0  0  0  0
 40 41  2  0  0  0  0
 41 42  1  0  0  0  0
 42 43  2  0  0  0  0
 43 44  1  0  0  0  0
 43 46  1  0  0  0  0
 44 45  2  0  0  0  0
 47 48  1  0  0  0  0
 48 49  1  0  0  0  0
 48 50  1  0  0  0  0
 48 51  1  0  0  0  0
M  END
>  <Supplier>
www.ambinter.com

>  <Ambinter_reference>
Amb8628246

>  <MW>
670.809

$$$$

