Amb28543952
 OpenBabel08272101522D

 83 90  0  0  1  0  0  0  0  0999 V2000
    4.3457   -1.7226    0.0000 C   0  0  0  0  0  0  0  0  0  0  0  0
    3.3511   -1.6180    0.0000 C   0  0  0  0  0  0  0  0  0  0  0  0
    2.9444   -0.7045    0.0000 C   0  0  0  0  0  0  0  0  0  0  0  0
    2.7634   -2.4271    0.0000 C   0  0  0  0  0  0  0  0  0  0  0  0
    1.7634   -2.4271    0.0000 C   0  0  0  0  0  0  0  0  0  0  0  0
    1.4543   -3.3781    0.0000 C   0  0  0  0  0  0  0  0  0  0  0  0
    2.2634   -3.9659    0.0000 C   0  0  0  0  0  0  0  0  0  0  0  0
    2.2634   -4.9659    0.0000 C   0  0  0  0  0  0  0  0  0  0  0  0
    1.3973   -5.4659    0.0000 C   0  0  0  0  0  0  0  0  0  0  0  0
    1.3973   -6.4659    0.0000 C   0  0  0  0  0  0  0  0  0  0  0  0
    2.2634   -6.9659    0.0000 C   0  0  0  0  0  0  0  0  0  0  0  0
    3.1294   -6.4659    0.0000 C   0  0  0  0  0  0  0  0  0  0  0  0
    3.1294   -5.4659    0.0000 C   0  0  0  0  0  0  0  0  0  0  0  0
    3.0724   -3.3781    0.0000 N   0  0  0  0  0  0  0  0  0  0  0  0
    4.0234   -3.6871    0.0000 C   0  0  0  0  0  0  0  0  0  0  0  0
    4.2313   -4.6653    0.0000 C   0  0  0  0  0  0  0  0  0  0  0  0
    5.1824   -4.9743    0.0000 C   0  0  3  0  0  0  0  0  0  0  0  0
    5.3903   -5.9524    0.0000 O   0  0  0  0  0  0  0  0  0  0  0  0
    5.9255   -4.3052    0.0000 C   0  0  0  0  0  0  0  0  0  0  0  0
    6.8766   -4.6142    0.0000 C   0  0  3  0  0  0  0  0  0  0  0  0
    7.0845   -5.5923    0.0000 O   0  0  0  0  0  0  0  0  0  0  0  0
    7.6197   -3.9450    0.0000 C   0  0  0  0  0  0  0  0  0  0  0  0
    8.5708   -4.2541    0.0000 C   0  0  0  0  0  0  0  0  0  0  0  0
    8.7787   -5.2322    0.0000 O   0  0  0  0  0  0  0  0  0  0  0  0
    9.3139   -3.5849    0.0000 O   0  0  0  0  0  0  0  0  0  0  0  0
   10.2650   -3.8939    0.0000 Ca  0  0  0  0  0  0  0  0  0  0  0  0
   11.0081   -3.2248    0.0000 O   0  0  0  0  0  0  0  0  0  0  0  0
   11.9592   -3.5338    0.0000 C   0  0  0  0  0  0  0  0  0  0  0  0
   12.1671   -4.5120    0.0000 O   0  0  0  0  0  0  0  0  0  0  0  0
   12.7023   -2.8647    0.0000 C   0  0  0  0  0  0  0  0  0  0  0  0
   13.6534   -3.1737    0.0000 C   0  0  3  0  0  0  0  0  0  0  0  0
   13.8613   -4.1519    0.0000 O   0  0  0  0  0  0  0  0  0  0  0  0
   14.3965   -2.5046    0.0000 C   0  0  0  0  0  0  0  0  0  0  0  0
   15.3476   -2.8136    0.0000 C   0  0  3  0  0  0  0  0  0  0  0  0
   15.5555   -3.7918    0.0000 O   0  0  0  0  0  0  0  0  0  0  0  0
   16.0908   -2.1445    0.0000 C   0  0  0  0  0  0  0  0  0  0  0  0
   17.0418   -2.4535    0.0000 C   0  0  0  0  0  0  0  0  0  0  0  0
   17.7850   -1.7844    0.0000 N   0  0  0  0  0  0  0  0  0  0  0  0
   17.6804   -0.7898    0.0000 C   0  0  0  0  0  0  0  0  0  0  0  0
   18.5940   -0.3831    0.0000 C   0  0  0  0  0  0  0  0  0  0  0  0
   19.2631   -1.1262    0.0000 C   0  0  0  0  0  0  0  0  0  0  0  0
   18.7631   -1.9923    0.0000 C   0  0  0  0  0  0  0  0  0  0  0  0
   19.1698   -2.9058    0.0000 C   0  0  0  0  0  0  0  0  0  0  0  0
   18.5821   -3.7148    0.0000 C   0  0  0  0  0  0  0  0  0  0  0  0
   20.1644   -3.0103    0.0000 C   0  0  0  0  0  0  0  0  0  0  0  0
   20.2576   -1.0217    0.0000 C   0  0  0  0  0  0  0  0  0  0  0  0
   20.8454   -1.8307    0.0000 O   0  0  0  0  0  0  0  0  0  0  0  0
   20.6644   -0.1082    0.0000 N   0  0  0  0  0  0  0  0  0  0  0  0
   21.6589   -0.0036    0.0000 C   0  0  0  0  0  0  0  0  0  0  0  0
   22.0656    0.9099    0.0000 C   0  0  0  0  0  0  0  0  0  0  0  0
   23.0601    1.0144    0.0000 C   0  0  0  0  0  0  0  0  0  0  0  0
   23.6479    0.2054    0.0000 C   0  0  0  0  0  0  0  0  0  0  0  0
   23.2412   -0.7081    0.0000 C   0  0  0  0  0  0  0  0  0  0  0  0
   22.2467   -0.8127    0.0000 C   0  0  0  0  0  0  0  0  0  0  0  0
   18.8019    0.5950    0.0000 C   0  0  0  0  0  0  0  0  0  0  0  0
   18.0587    1.2642    0.0000 C   0  0  0  0  0  0  0  0  0  0  0  0
   18.2666    2.2423    0.0000 C   0  0  0  0  0  0  0  0  0  0  0  0
   19.2177    2.5513    0.0000 C   0  0  0  0  0  0  0  0  0  0  0  0
   19.4256    3.5295    0.0000 F   0  0  0  0  0  0  0  0  0  0  0  0
   19.9608    1.8822    0.0000 C   0  0  0  0  0  0  0  0  0  0  0  0
   19.7529    0.9041    0.0000 C   0  0  0  0  0  0  0  0  0  0  0  0
   16.8144   -0.2898    0.0000 C   0  0  0  0  0  0  0  0  0  0  0  0
   15.9484   -0.7898    0.0000 C   0  0  0  0  0  0  0  0  0  0  0  0
   15.0823   -0.2898    0.0000 C   0  0  0  0  0  0  0  0  0  0  0  0
   15.0823    0.7102    0.0000 C   0  0  0  0  0  0  0  0  0  0  0  0
   15.9484    1.2102    0.0000 C   0  0  0  0  0  0  0  0  0  0  0  0
   16.8144    0.7102    0.0000 C   0  0  0  0  0  0  0  0  0  0  0  0
    0.5033   -3.6871    0.0000 C   0  0  0  0  0  0  0  0  0  0  0  0
   -0.2399   -3.0180    0.0000 C   0  0  0  0  0  0  0  0  0  0  0  0
   -1.1909   -3.3270    0.0000 C   0  0  0  0  0  0  0  0  0  0  0  0
   -1.3988   -4.3052    0.0000 C   0  0  0  0  0  0  0  0  0  0  0  0
   -2.3499   -4.6142    0.0000 F   0  0  0  0  0  0  0  0  0  0  0  0
   -0.6557   -4.9743    0.0000 C   0  0  0  0  0  0  0  0  0  0  0  0
    0.2954   -4.6653    0.0000 C   0  0  0  0  0  0  0  0  0  0  0  0
    1.1756   -1.6180    0.0000 C   0  0  0  0  0  0  0  0  0  0  0  0
    0.1810   -1.7226    0.0000 O   0  0  0  0  0  0  0  0  0  0  0  0
    1.5823   -0.7045    0.0000 N   0  0  0  0  0  0  0  0  0  0  0  0
    0.9945    0.1045    0.0000 C   0  0  0  0  0  0  0  0  0  0  0  0
    1.4013    1.0181    0.0000 C   0  0  0  0  0  0  0  0  0  0  0  0
    0.8135    1.8271    0.0000 C   0  0  0  0  0  0  0  0  0  0  0  0
   -0.1810    1.7226    0.0000 C   0  0  0  0  0  0  0  0  0  0  0  0
   -0.5878    0.8090    0.0000 C   0  0  0  0  0  0  0  0  0  0  0  0
   -0.0000   -0.0000    0.0000 C   0  0  0  0  0  0  0  0  0  0  0  0
  1  2  1  0  0  0  0
  2  3  1  0  0  0  0
  2  4  1  0  0  0  0
  4 14  1  0  0  0  0
  4  5  2  0  0  0  0
  5  6  1  0  0  0  0
  5 75  1  0  0  0  0
  6  7  2  0  0  0  0
  6 68  1  0  0  0  0
  7  8  1  0  0  0  0
  7 14  1  0  0  0  0
  8 13  1  0  0  0  0
  8  9  2  0  0  0  0
  9 10  1  0  0  0  0
 10 11  2  0  0  0  0
 11 12  1  0  0  0  0
 12 13  2  0  0  0  0
 14 15  1  0  0  0  0
 15 16  1  0  0  0  0
 16 17  1  0  0  0  0
 17 18  1  0  0  0  0
 17 19  1  0  0  0  0
 19 20  1  0  0  0  0
 20 21  1  0  0  0  0
 20 22  1  0  0  0  0
 22 23  1  0  0  0  0
 23 24  2  0  0  0  0
 23 25  1  0  0  0  0
 25 26  1  0  0  0  0
 26 27  1  0  0  0  0
 27 28  1  0  0  0  0
 28 29  2  0  0  0  0
 28 30  1  0  0  0  0
 30 31  1  0  0  0  0
 31 32  1  0  0  0  0
 31 33  1  0  0  0  0
 33 34  1  0  0  0  0
 34 35  1  0  0  0  0
 34 36  1  0  0  0  0
 36 37  1  0  0  0  0
 37 38  1  0  0  0  0
 38 42  1  0  0  0  0
 38 39  1  0  0  0  0
 39 40  2  0  0  0  0
 39 62  1  0  0  0  0
 40 41  1  0  0  0  0
 40 55  1  0  0  0  0
 41 42  2  0  0  0  0
 41 46  1  0  0  0  0
 42 43  1  0  0  0  0
 43 44  1  0  0  0  0
 43 45  1  0  0  0  0
 46 47  2  0  0  0  0
 46 48  1  0  0  0  0
 48 49  1  0  0  0  0
 49 54  1  0  0  0  0
 49 50  2  0  0  0  0
 50 51  1  0  0  0  0
 51 52  2  0  0  0  0
 52 53  1  0  0  0  0
 53 54  2  0  0  0  0
 55 61  1  0  0  0  0
 55 56  2  0  0  0  0
 56 57  1  0  0  0  0
 57 58  2  0  0  0  0
 58 59  1  0  0  0  0
 58 60  1  0  0  0  0
 60 61  2  0  0  0  0
 62 67  1  0  0  0  0
 62 63  2  0  0  0  0
 63 64  1  0  0  0  0
 64 65  2  0  0  0  0
 65 66  1  0  0  0  0
 66 67  2  0  0  0  0
 68 74  1  0  0  0  0
 68 69  2  0  0  0  0
 69 70  1  0  0  0  0
 70 71  2  0  0  0  0
 71 72  1  0  0  0  0
 71 73  1  0  0  0  0
 73 74  2  0  0  0  0
 75 76  2  0  0  0  0
 75 77  1  0  0  0  0
 77 78  1  0  0  0  0
 78 83  1  0  0  0  0
 78 79  2  0  0  0  0
 79 80  1  0  0  0  0
 80 81  2  0  0  0  0
 81 82  1  0  0  0  0
 82 83  2  0  0  0  0
M  END
>  <Supplier>
www.ambinter.com

>  <Ambinter_reference>
Amb28543952

>  <MW>
1155.34

$$$$
