Amb17607398
 OpenBabel08272101412D

 21 20  0  0  1  0  0  0  0  0999 V2000
   -4.2321   -2.8660    0.0000 C   0  0  0  0  0  0  0  0  0  0  0  0
   -3.3660   -3.3660    0.0000 C   0  0  0  0  0  0  0  0  0  0  0  0
   -3.3660   -4.3660    0.0000 O   0  0  0  0  0  0  0  0  0  0  0  0
   -2.5000   -2.8660    0.0000 N   0  0  0  0  0  0  0  0  0  0  0  0
   -2.5000   -1.8660    0.0000 C   0  0  2  0  0  0  0  0  0  0  0  0
   -3.5000   -1.8660    0.0000 H   0  0  0  0  0  0  0  0  0  0  0  0
   -2.5000   -0.8660    0.0000 C   0  0  0  0  0  0  0  0  0  0  0  0
   -3.3660   -0.3660    0.0000 O   0  0  0  0  0  0  0  0  0  0  0  0
   -1.6340   -0.3660    0.0000 O   0  0  0  0  0  0  0  0  0  0  0  0
   -1.5000   -1.8660    0.0000 C   0  0  0  0  0  0  0  0  0  0  0  0
   -1.0000   -1.0000    0.0000 S   0  0  0  0  0  0  0  0  0  0  0  0
    0.0000   -1.0000    0.0000 C   0  0  0  0  0  0  0  0  0  0  0  0
    0.5000   -1.8660    0.0000 C   0  0  0  0  0  0  0  0  0  0  0  0
    0.0000   -2.7321    0.0000 C   0  0  0  0  0  0  0  0  0  0  0  0
    0.0000   -3.7321    0.0000 H   0  0  0  0  0  0  0  0  0  0  0  0
    0.8660   -3.2321    0.0000 H   0  0  0  0  0  0  0  0  0  0  0  0
   -1.0000   -2.7321    0.0000 H   0  0  0  0  0  0  0  0  0  0  0  0
    1.3660   -2.3660    0.0000 H   0  0  0  0  0  0  0  0  0  0  0  0
    1.3660   -1.3660    0.0000 H   0  0  0  0  0  0  0  0  0  0  0  0
    0.8660   -0.5000    0.0000 H   0  0  0  0  0  0  0  0  0  0  0  0
    0.0000   -0.0000    0.0000 H   0  0  0  0  0  0  0  0  0  0  0  0
  1  2  1  0  0  0  0
  2  3  2  0  0  0  0
  2  4  1  0  0  0  0
  4  5  1  0  0  0  0
  5  6  1  1  0  0  0
  5  7  1  0  0  0  0
  5 10  1  0  0  0  0
  7  8  2  0  0  0  0
  7  9  1  0  0  0  0
 10 11  1  0  0  0  0
 11 12  1  0  0  0  0
 12 13  1  0  0  0  0
 12 20  1  0  0  0  0
 12 21  1  0  0  0  0
 13 14  1  0  0  0  0
 13 18  1  0  0  0  0
 13 19  1  0  0  0  0
 14 15  1  0  0  0  0
 14 16  1  0  0  0  0
 14 17  1  0  0  0  0
M  ISO  7  15   2  16   2  17   2  18   2  19   2  20   2  21   2
M  END
>  <Supplier>
www.ambinter.com

>  <Ambinter_reference>
Amb17607398

>  <MW>
212.318

$$$$
Amb17607406
 OpenBabel08272101412D

 17 16  0  0  1  0  0  0  0  0999 V2000
    1.0000   -0.0000    0.0000 C   0  0  0  0  0  0  0  0  0  0  0  0
    1.0000   -1.0000    0.0000 H   0  0  0  0  0  0  0  0  0  0  0  0
    1.8660    0.5000    0.0000 C   0  0  0  0  0  0  0  0  0  0  0  0
    1.8660    1.5000    0.0000 O   0  0  0  0  0  0  0  0  0  0  0  0
    2.7321   -0.0000    0.0000 N   0  0  0  0  0  0  0  0  0  0  0  0
    2.7321   -1.0000    0.0000 C   0  0  2  0  0  0  0  0  0  0  0  0
    3.7321   -1.0000    0.0000 H   0  0  0  0  0  0  0  0  0  0  0  0
    2.7321   -2.0000    0.0000 C   0  0  0  0  0  0  0  0  0  0  0  0
    3.5981   -2.5000    0.0000 O   0  0  0  0  0  0  0  0  0  0  0  0
    1.8660   -2.5000    0.0000 O   0  0  0  0  0  0  0  0  0  0  0  0
    1.7321   -1.0000    0.0000 C   0  0  0  0  0  0  0  0  0  0  0  0
    1.2321   -1.8660    0.0000 S   0  0  0  0  0  0  0  0  0  0  0  0
    0.2321   -1.8660    0.0000 C   0  0  0  0  0  0  0  0  0  0  0  0
   -0.2679   -2.7321    0.0000 C   0  0  0  0  0  0  0  0  0  0  0  0
   -1.2679   -2.7321    0.0000 C   0  0  0  0  0  0  0  0  0  0  0  0
    0.5000    0.8660    0.0000 H   0  0  0  0  0  0  0  0  0  0  0  0
    0.0000    0.0000    0.0000 H   0  0  0  0  0  0  0  0  0  0  0  0
  1  2  1  0  0  0  0
  1  3  1  0  0  0  0
  1 16  1  0  0  0  0
  1 17  1  0  0  0  0
  3  4  2  0  0  0  0
  3  5  1  0  0  0  0
  5  6  1  0  0  0  0
  6  7  1  1  0  0  0
  6  8  1  0  0  0  0
  6 11  1  0  0  0  0
  8  9  2  0  0  0  0
  8 10  1  0  0  0  0
 11 12  1  0  0  0  0
 12 13  1  0  0  0  0
 13 14  1  0  0  0  0
 14 15  2  0  0  0  0
M  ISO  3   2   2  16   2  17   2
M  END
>  <Supplier>
www.ambinter.com

>  <Ambinter_reference>
Amb17607406

>  <MW>
206.277

$$$$
Amb17607489
 OpenBabel08272101412D

 18 17  0  0  1  0  0  0  0  0999 V2000
    1.0000   -0.0000    0.0000 C   0  0  0  0  0  0  0  0  0  0  0  0
    1.0000   -1.0000    0.0000 H   0  0  0  0  0  0  0  0  0  0  0  0
    1.8660    0.5000    0.0000 C   0  0  0  0  0  0  0  0  0  0  0  0
    1.8660    1.5000    0.0000 O   0  0  0  0  0  0  0  0  0  0  0  0
    2.7321   -0.0000    0.0000 N   0  0  0  0  0  0  0  0  0  0  0  0
    2.7321   -1.0000    0.0000 C   0  0  2  0  0  0  0  0  0  0  0  0
    3.7321   -1.0000    0.0000 H   0  0  0  0  0  0  0  0  0  0  0  0
    2.7321   -2.0000    0.0000 C   0  0  0  0  0  0  0  0  0  0  0  0
    3.5981   -2.5000    0.0000 O   0  0  0  0  0  0  0  0  0  0  0  0
    1.8660   -2.5000    0.0000 O   0  0  0  0  0  0  0  0  0  0  0  0
    1.7321   -1.0000    0.0000 C   0  0  0  0  0  0  0  0  0  0  0  0
    1.2321   -1.8660    0.0000 S   0  0  0  0  0  0  0  0  0  0  0  0
    0.2321   -1.8660    0.0000 C   0  0  0  0  0  0  0  0  0  0  0  0
   -0.2679   -2.7321    0.0000 C   0  0  0  0  0  0  0  0  0  0  0  0
   -1.2679   -2.7321    0.0000 C   0  0  0  0  0  0  0  0  0  0  0  0
   -2.2679   -2.7321    0.0000 N   0  0  0  0  0  0  0  0  0  0  0  0
    0.5000    0.8660    0.0000 H   0  0  0  0  0  0  0  0  0  0  0  0
    0.0000    0.0000    0.0000 H   0  0  0  0  0  0  0  0  0  0  0  0
  1  2  1  0  0  0  0
  1  3  1  0  0  0  0
  1 17  1  0  0  0  0
  1 18  1  0  0  0  0
  3  4  2  0  0  0  0
  3  5  1  0  0  0  0
  5  6  1  0  0  0  0
  6  7  1  1  0  0  0
  6  8  1  0  0  0  0
  6 11  1  0  0  0  0
  8  9  2  0  0  0  0
  8 10  1  0  0  0  0
 11 12  1  0  0  0  0
 12 13  1  0  0  0  0
 13 14  1  0  0  0  0
 14 15  1  0  0  0  0
 15 16  3  0  0  0  0
M  ISO  3   2   2  17   2  18   2
M  END
>  <Supplier>
www.ambinter.com

>  <Ambinter_reference>
Amb17607489

>  <MW>
219.276

$$$$
Amb17607537
 OpenBabel08272101412D

 18 17  0  0  1  0  0  0  0  0999 V2000
    4.2321    2.8660    0.0000 C   0  0  0  0  0  0  0  0  0  0  0  0
    3.3660    3.3660    0.0000 C   0  0  0  0  0  0  0  0  0  0  0  0
    3.3660    4.3660    0.0000 O   0  0  0  0  0  0  0  0  0  0  0  0
    2.5000    2.8660    0.0000 N   0  0  0  0  0  0  0  0  0  0  0  0
    2.5000    1.8660    0.0000 C   0  0  2  0  0  0  0  0  0  0  0  0
    3.5000    1.8660    0.0000 H   0  0  0  0  0  0  0  0  0  0  0  0
    2.5000    0.8660    0.0000 C   0  0  0  0  0  0  0  0  0  0  0  0
    3.3660    0.3660    0.0000 O   0  0  0  0  0  0  0  0  0  0  0  0
    1.6340    0.3660    0.0000 O   0  0  0  0  0  0  0  0  0  0  0  0
    1.5000    1.8660    0.0000 C   0  0  0  0  0  0  0  0  0  0  0  0
    1.0000    1.0000    0.0000 S   0  0  0  0  0  0  0  0  0  0  0  0
    0.0000    1.0000    0.0000 C   0  0  0  0  0  0  0  0  0  0  0  0
   -0.5000    1.8660    0.0000 C   0  0  0  0  0  0  0  0  0  0  0  0
   -1.3660    2.3660    0.0000 H   0  0  0  0  0  0  0  0  0  0  0  0
   -1.3660    1.3660    0.0000 H   0  0  0  0  0  0  0  0  0  0  0  0
    0.0000    2.7321    0.0000 H   0  0  0  0  0  0  0  0  0  0  0  0
   -0.8660    0.5000    0.0000 H   0  0  0  0  0  0  0  0  0  0  0  0
   -0.0000   -0.0000    0.0000 H   0  0  0  0  0  0  0  0  0  0  0  0
  1  2  1  0  0  0  0
  2  3  2  0  0  0  0
  2  4  1  0  0  0  0
  4  5  1  0  0  0  0
  5  6  1  1  0  0  0
  5  7  1  0  0  0  0
  5 10  1  0  0  0  0
  7  8  2  0  0  0  0
  7  9  1  0  0  0  0
 10 11  1  0  0  0  0
 11 12  1  0  0  0  0
 12 13  1  0  0  0  0
 12 17  1  0  0  0  0
 12 18  1  0  0  0  0
 13 14  1  0  0  0  0
 13 15  1  0  0  0  0
 13 16  1  0  0  0  0
M  ISO  5  14   2  15   2  16   2  17   2  18   2
M  END
>  <Supplier>
www.ambinter.com

>  <Ambinter_reference>
Amb17607537

>  <MW>
196.279

$$$$
Amb17607606
 OpenBabel08272101412D

 15 14  0  0  1  0  0  0  0  0999 V2000
    0.2321   -1.8660    0.0000 C   0  0  0  0  0  0  0  0  0  0  0  0
    0.2321   -0.8660    0.0000 C   0  0  0  0  0  0  0  0  0  0  0  0
    1.0981   -0.3660    0.0000 O   0  0  0  0  0  0  0  0  0  0  0  0
   -0.6340   -0.3660    0.0000 N   0  0  0  0  0  0  0  0  0  0  0  0
   -1.5000   -0.8660    0.0000 C   0  0  2  0  0  0  0  0  0  0  0  0
   -1.0000   -1.7321    0.0000 H   0  0  0  0  0  0  0  0  0  0  0  0
   -2.3660   -1.3660    0.0000 C   0  0  0  0  0  0  0  0  0  0  0  0
   -2.3660   -2.3660    0.0000 O   0  0  0  0  0  0  0  0  0  0  0  0
   -3.2321   -0.8660    0.0000 O   0  0  0  0  0  0  0  0  0  0  0  0
   -2.0000   -0.0000    0.0000 C   0  0  0  0  0  0  0  0  0  0  0  0
   -1.5000    0.8660    0.0000 S   0  0  0  0  0  0  0  0  0  0  0  0
   -0.5000    0.8660    0.0000 C   0  0  0  0  0  0  0  0  0  0  0  0
    0.3660    1.3660    0.0000 H   0  0  0  0  0  0  0  0  0  0  0  0
   -0.5000    1.8660    0.0000 H   0  0  0  0  0  0  0  0  0  0  0  0
   -0.0000   -0.0000    0.0000 H   0  0  0  0  0  0  0  0  0  0  0  0
  1  2  1  0  0  0  0
  2  3  2  0  0  0  0
  2  4  1  0  0  0  0
  4  5  1  0  0  0  0
  5  6  1  1  0  0  0
  5  7  1  0  0  0  0
  5 10  1  0  0  0  0
  7  8  2  0  0  0  0
  7  9  1  0  0  0  0
 10 11  1  0  0  0  0
 11 12  1  0  0  0  0
 12 13  1  0  0  0  0
 12 14  1  0  0  0  0
 12 15  1  0  0  0  0
M  ISO  3  13   2  14   2  15   2
M  END
>  <Supplier>
www.ambinter.com

>  <Ambinter_reference>
Amb17607606

>  <MW>
180.24

$$$$
Amb17940797
 OpenBabel08272101412D

 22 21  0  0  1  0  0  0  0  0999 V2000
    3.4641    0.0000    0.0000 N   0  0  0  0  0  0  0  0  0  0  0  0
    3.4641    1.0000    0.0000 C   0  0  0  0  0  0  0  0  0  0  0  0
    2.5981    1.5000    0.0000 C   0  0  0  0  0  0  0  0  0  0  0  0
    2.5981    2.5000    0.0000 O   0  0  0  0  0  0  0  0  0  0  0  0
    1.7321    1.0000    0.0000 N   0  0  0  0  0  0  0  0  0  0  0  0
    0.8660    1.5000    0.0000 C   0  0  3  0  0  0  0  0  0  0  0  0
    0.8660    2.5000    0.0000 C   0  0  0  0  0  0  0  0  0  0  0  0
   -0.0000    3.0000    0.0000 S   0  0  0  0  0  0  0  0  0  0  0  0
   -0.8660    2.5000    0.0000 S   0  0  0  0  0  0  0  0  0  0  0  0
   -1.7321    3.0000    0.0000 C   0  0  0  0  0  0  0  0  0  0  0  0
   -2.5981    2.5000    0.0000 C   0  0  3  0  0  0  0  0  0  0  0  0
   -3.4641    3.0000    0.0000 N   0  0  0  0  0  0  0  0  0  0  0  0
   -4.3301    2.5000    0.0000 C   0  0  0  0  0  0  0  0  0  0  0  0
   -5.1962    3.0000    0.0000 O   0  0  0  0  0  0  0  0  0  0  0  0
   -4.3301    1.5000    0.0000 C   0  0  0  0  0  0  0  0  0  0  0  0
   -5.1962    1.0000    0.0000 N   0  0  0  0  0  0  0  0  0  0  0  0
   -2.5981    1.5000    0.0000 C   0  0  0  0  0  0  0  0  0  0  0  0
   -3.4641    1.0000    0.0000 O   0  0  0  0  0  0  0  0  0  0  0  0
   -1.7321    1.0000    0.0000 O   0  0  0  0  0  0  0  0  0  0  0  0
   -0.0000    1.0000    0.0000 C   0  0  0  0  0  0  0  0  0  0  0  0
   -0.8660    1.5000    0.0000 O   0  0  0  0  0  0  0  0  0  0  0  0
   -0.0000   -0.0000    0.0000 O   0  0  0  0  0  0  0  0  0  0  0  0
  1  2  1  0  0  0  0
  2  3  1  0  0  0  0
  3  4  2  0  0  0  0
  3  5  1  0  0  0  0
  5  6  1  0  0  0  0
  6  7  1  0  0  0  0
  6 20  1  0  0  0  0
  7  8  1  0  0  0  0
  8  9  1  0  0  0  0
  9 10  1  0  0  0  0
 10 11  1  0  0  0  0
 11 12  1  0  0  0  0
 11 17  1  0  0  0  0
 12 13  1  0  0  0  0
 13 14  2  0  0  0  0
 13 15  1  0  0  0  0
 15 16  1  0  0  0  0
 17 18  1  0  0  0  0
 17 19  2  0  0  0  0
 20 21  1  0  0  0  0
 20 22  2  0  0  0  0
M  END
>  <Supplier>
www.ambinter.com

>  <Ambinter_reference>
Amb17940797

>  <MW>
354.403

$$$$
Amb18127827
 OpenBabel08272101412D

 11 10  0  0  1  0  0  0  0  0999 V2000
   -0.0000   -2.0000    0.0000 C   0  0  0  0  0  0  0  0  0  0  0  0
    0.8660   -1.5000    0.0000 C   0  0  3  0  0  0  0  0  0  0  0  0
    1.7321   -2.0000    0.0000 N   0  0  0  0  0  0  0  0  0  0  0  0
    2.5981   -1.5000    0.0000 C   0  0  0  0  0  0  0  0  0  0  0  0
    3.4641   -2.0000    0.0000 O   0  0  0  0  0  0  0  0  0  0  0  0
    2.5981   -0.5000    0.0000 C   0  0  0  0  0  0  0  0  0  0  0  0
    3.4641   -0.0000    0.0000 C   0  0  0  0  0  0  0  0  0  0  0  0
    4.3301   -0.5000    0.0000 S   0  0  0  0  0  0  0  0  0  0  0  0
    0.8660   -0.5000    0.0000 C   0  0  0  0  0  0  0  0  0  0  0  0
    1.7321   -0.0000    0.0000 O   0  0  0  0  0  0  0  0  0  0  0  0
    0.0000    0.0000    0.0000 O   0  0  0  0  0  0  0  0  0  0  0  0
  1  2  1  0  0  0  0
  2  3  1  0  0  0  0
  2  9  1  0  0  0  0
  3  4  1  0  0  0  0
  4  5  2  0  0  0  0
  4  6  1  0  0  0  0
  6  7  1  0  0  0  0
  7  8  1  0  0  0  0
  9 10  1  0  0  0  0
  9 11  2  0  0  0  0
M  END
>  <Supplier>
www.ambinter.com

>  <Ambinter_reference>
Amb18127827

>  <MW>
177.221

$$$$
Amb18652209
 OpenBabel08272101412D

 11 10  0  0  1  0  0  0  0  0999 V2000
   -1.7321    0.0000    0.0000 O   0  0  0  0  0  0  0  0  0  0  0  0
   -2.5981   -0.5000    0.0000 C   0  0  0  0  0  0  0  0  0  0  0  0
   -3.4641    0.0000    0.0000 O   0  0  0  0  0  0  0  0  0  0  0  0
   -2.5981   -1.5000    0.0000 C   0  0  3  0  0  0  0  0  0  0  0  0
   -3.4641   -2.0000    0.0000 C   0  0  0  0  0  0  0  0  0  0  0  0
   -4.3301   -1.5000    0.0000 S   0  0  0  0  0  0  0  0  0  0  0  0
   -1.7321   -2.0000    0.0000 N   0  0  0  0  0  0  0  0  0  0  0  0
   -0.8660   -1.5000    0.0000 C   0  0  0  0  0  0  0  0  0  0  0  0
   -0.0000   -2.0000    0.0000 O   0  0  0  0  0  0  0  0  0  0  0  0
   -0.8660   -0.5000    0.0000 C   0  0  0  0  0  0  0  0  0  0  0  0
    0.0000   -0.0000    0.0000 S   0  0  0  0  0  0  0  0  0  0  0  0
  1  2  1  0  0  0  0
  2  3  2  0  0  0  0
  2  4  1  0  0  0  0
  4  5  1  0  0  0  0
  4  7  1  0  0  0  0
  5  6  1  0  0  0  0
  7  8  1  0  0  0  0
  8  9  2  0  0  0  0
  8 10  1  0  0  0  0
 10 11  1  0  0  0  0
M  END
>  <Supplier>
www.ambinter.com

>  <Ambinter_reference>
Amb18652209

>  <MW>
195.26

$$$$
Amb18788229
 OpenBabel08272101412D

 10  9  0  0  1  0  0  0  0  0999 V2000
    0.8660    0.5000    0.0000 C   0  0  0  0  0  0  0  0  0  0  0  0
    0.8660    1.5000    0.0000 C   0  0  0  0  0  0  0  0  0  0  0  0
    0.0000    2.0000    0.0000 N   0  0  0  0  0  0  0  0  0  0  0  0
   -0.8660    1.5000    0.0000 C   0  0  3  0  0  0  0  0  0  0  0  0
   -1.7321    2.0000    0.0000 C   0  0  0  0  0  0  0  0  0  0  0  0
   -2.5981    1.5000    0.0000 S   0  0  0  0  0  0  0  0  0  0  0  0
   -3.4641    2.0000    0.0000 C   0  0  0  0  0  0  0  0  0  0  0  0
   -0.8660    0.5000    0.0000 C   0  0  0  0  0  0  0  0  0  0  0  0
   -1.7321   -0.0000    0.0000 O   0  0  0  0  0  0  0  0  0  0  0  0
    0.0000    0.0000    0.0000 O   0  0  0  0  0  0  0  0  0  0  0  0
  1  2  1  0  0  0  0
  2  3  1  0  0  0  0
  3  4  1  0  0  0  0
  4  5  1  0  0  0  0
  4  8  1  0  0  0  0
  5  6  1  0  0  0  0
  6  7  1  0  0  0  0
  8  9  1  0  0  0  0
  8 10  2  0  0  0  0
M  END
>  <Supplier>
www.ambinter.com

>  <Ambinter_reference>
Amb18788229

>  <MW>
163.238

$$$$
Amb18790884
 OpenBabel08272101412D

 11 10  0  0  1  0  0  0  0  0999 V2000
    0.8660    0.5000    0.0000 C   0  0  0  0  0  0  0  0  0  0  0  0
    0.8660    1.5000    0.0000 C   0  0  0  0  0  0  0  0  0  0  0  0
    1.7321    2.0000    0.0000 C   0  0  0  0  0  0  0  0  0  0  0  0
    0.0000    2.0000    0.0000 N   0  0  0  0  0  0  0  0  0  0  0  0
   -0.8660    1.5000    0.0000 C   0  0  3  0  0  0  0  0  0  0  0  0
   -1.7321    2.0000    0.0000 C   0  0  0  0  0  0  0  0  0  0  0  0
   -2.5981    1.5000    0.0000 S   0  0  0  0  0  0  0  0  0  0  0  0
   -3.4641    2.0000    0.0000 C   0  0  0  0  0  0  0  0  0  0  0  0
   -0.8660    0.5000    0.0000 C   0  0  0  0  0  0  0  0  0  0  0  0
   -1.7321    0.0000    0.0000 O   0  0  0  0  0  0  0  0  0  0  0  0
    0.0000    0.0000    0.0000 O   0  0  0  0  0  0  0  0  0  0  0  0
  1  2  1  0  0  0  0
  2  3  1  0  0  0  0
  2  4  1  0  0  0  0
  4  5  1  0  0  0  0
  5  6  1  0  0  0  0
  5  9  1  0  0  0  0
  6  7  1  0  0  0  0
  7  8  1  0  0  0  0
  9 10  1  0  0  0  0
  9 11  2  0  0  0  0
M  END
>  <Supplier>
www.ambinter.com

>  <Ambinter_reference>
Amb18790884

>  <MW>
177.264

$$$$
Amb19130236
 OpenBabel08272101412D

 21 20  0  0  1  0  0  0  0  0999 V2000
   -0.6340    0.6340    0.0000 H   0  0  0  0  0  0  0  0  0  0  0  0
   -1.6340    0.6340    0.0000 C   0  0  0  0  0  0  0  0  0  0  0  0
   -2.5000    0.1340    0.0000 H   0  0  0  0  0  0  0  0  0  0  0  0
   -1.6340   -0.3660    0.0000 H   0  0  0  0  0  0  0  0  0  0  0  0
   -2.1340    1.5000    0.0000 C   0  0  0  0  0  0  0  0  0  0  0  0
   -3.0000    2.0000    0.0000 H   0  0  0  0  0  0  0  0  0  0  0  0
   -3.0000    1.0000    0.0000 H   0  0  0  0  0  0  0  0  0  0  0  0
   -1.6340    2.3660    0.0000 C   0  0  0  0  0  0  0  0  0  0  0  0
   -1.6340    3.3660    0.0000 H   0  0  0  0  0  0  0  0  0  0  0  0
   -2.5000    2.8660    0.0000 H   0  0  0  0  0  0  0  0  0  0  0  0
   -0.6340    2.3660    0.0000 S   0  0  0  0  0  0  0  0  0  0  0  0
   -0.1340    1.5000    0.0000 C   0  0  0  0  0  0  0  0  0  0  0  0
    0.8660    1.5000    0.0000 C   0  0  1  0  0  0  0  0  0  0  0  0
    0.8660    2.5000    0.0000 H   0  0  0  0  0  0  0  0  0  0  0  0
    1.8660    1.5000    0.0000 N   0  0  0  0  0  0  0  0  0  0  0  0
    2.3660    2.3660    0.0000 C   0  0  0  0  0  0  0  0  0  0  0  0
    3.3660    2.3660    0.0000 C   0  0  0  0  0  0  0  0  0  0  0  0
    1.8660    3.2321    0.0000 O   0  0  0  0  0  0  0  0  0  0  0  0
    0.8660    0.5000    0.0000 C   0  0  0  0  0  0  0  0  0  0  0  0
    1.7321   -0.0000    0.0000 O   0  0  0  0  0  0  0  0  0  0  0  0
   -0.0000   -0.0000    0.0000 O   0  0  0  0  0  0  0  0  0  0  0  0
  1  2  1  0  0  0  0
  2  3  1  0  0  0  0
  2  4  1  0  0  0  0
  2  5  1  0  0  0  0
  5  6  1  0  0  0  0
  5  7  1  0  0  0  0
  5  8  1  0  0  0  0
  8  9  1  0  0  0  0
  8 10  1  0  0  0  0
  8 11  1  0  0  0  0
 11 12  1  0  0  0  0
 12 13  1  0  0  0  0
 13 14  1  6  0  0  0
 13 15  1  0  0  0  0
 13 19  1  0  0  0  0
 15 16  1  0  0  0  0
 16 17  1  0  0  0  0
 16 18  2  0  0  0  0
 19 20  1  0  0  0  0
 19 21  2  0  0  0  0
M  ISO  7   1   2   3   2   4   2   6   2   7   2   9   2  10   2
M  END
>  <Supplier>
www.ambinter.com

>  <Ambinter_reference>
Amb19130236

>  <MW>
212.318

$$$$
Amb19130279
 OpenBabel08272101412D

 18 17  0  0  1  0  0  0  0  0999 V2000
   -1.3660    2.3660    0.0000 H   0  0  0  0  0  0  0  0  0  0  0  0
   -0.8660    3.2321    0.0000 C   0  0  0  0  0  0  0  0  0  0  0  0
   -0.8660    4.2321    0.0000 H   0  0  0  0  0  0  0  0  0  0  0  0
   -1.7321    3.7321    0.0000 H   0  0  0  0  0  0  0  0  0  0  0  0
    0.1340    3.2321    0.0000 C   0  0  0  0  0  0  0  0  0  0  0  0
    1.0000    3.7321    0.0000 H   0  0  0  0  0  0  0  0  0  0  0  0
    0.1340    4.2321    0.0000 H   0  0  0  0  0  0  0  0  0  0  0  0
    0.6340    2.3660    0.0000 S   0  0  0  0  0  0  0  0  0  0  0  0
    0.1340    1.5000    0.0000 C   0  0  0  0  0  0  0  0  0  0  0  0
   -0.8660    1.5000    0.0000 C   0  0  1  0  0  0  0  0  0  0  0  0
   -0.8660    2.5000    0.0000 H   0  0  0  0  0  0  0  0  0  0  0  0
   -1.8660    1.5000    0.0000 N   0  0  0  0  0  0  0  0  0  0  0  0
   -2.3660    2.3660    0.0000 C   0  0  0  0  0  0  0  0  0  0  0  0
   -1.8660    3.2321    0.0000 C   0  0  0  0  0  0  0  0  0  0  0  0
   -3.3660    2.3660    0.0000 O   0  0  0  0  0  0  0  0  0  0  0  0
   -0.8660    0.5000    0.0000 C   0  0  0  0  0  0  0  0  0  0  0  0
   -1.7321   -0.0000    0.0000 O   0  0  0  0  0  0  0  0  0  0  0  0
    0.0000    0.0000    0.0000 O   0  0  0  0  0  0  0  0  0  0  0  0
  1  2  1  0  0  0  0
  2  3  1  0  0  0  0
  2  4  1  0  0  0  0
  2  5  1  0  0  0  0
  5  6  1  0  0  0  0
  5  7  1  0  0  0  0
  5  8  1  0  0  0  0
  8  9  1  0  0  0  0
  9 10  1  0  0  0  0
 10 11  1  1  0  0  0
 10 12  1  0  0  0  0
 10 16  1  0  0  0  0
 12 13  1  0  0  0  0
 13 14  1  0  0  0  0
 13 15  2  0  0  0  0
 16 17  1  0  0  0  0
 16 18  2  0  0  0  0
M  ISO  5   1   2   3   2   4   2   6   2   7   2
M  END
>  <Supplier>
www.ambinter.com

>  <Ambinter_reference>
Amb19130279

>  <MW>
196.279

$$$$
Amb19130290
 OpenBabel08272101412D

 18 17  0  0  1  0  0  0  0  0999 V2000
   -1.3660    2.3660    0.0000 H   0  0  0  0  0  0  0  0  0  0  0  0
   -0.8660    3.2321    0.0000 C   0  0  0  0  0  0  0  0  0  0  0  0
   -0.8660    4.2321    0.0000 H   0  0  0  0  0  0  0  0  0  0  0  0
   -1.7321    3.7321    0.0000 O   0  0  0  0  0  0  0  0  0  0  0  0
    0.1340    3.2321    0.0000 C   0  0  0  0  0  0  0  0  0  0  0  0
    1.0000    3.7321    0.0000 H   0  0  0  0  0  0  0  0  0  0  0  0
    0.1340    4.2321    0.0000 H   0  0  0  0  0  0  0  0  0  0  0  0
    0.6340    2.3660    0.0000 S   0  0  0  0  0  0  0  0  0  0  0  0
    0.1340    1.5000    0.0000 C   0  0  0  0  0  0  0  0  0  0  0  0
   -0.8660    1.5000    0.0000 C   0  0  1  0  0  0  0  0  0  0  0  0
   -0.8660    2.5000    0.0000 H   0  0  0  0  0  0  0  0  0  0  0  0
   -1.8660    1.5000    0.0000 N   0  0  0  0  0  0  0  0  0  0  0  0
   -2.3660    2.3660    0.0000 C   0  0  0  0  0  0  0  0  0  0  0  0
   -1.8660    3.2321    0.0000 C   0  0  0  0  0  0  0  0  0  0  0  0
   -3.3660    2.3660    0.0000 O   0  0  0  0  0  0  0  0  0  0  0  0
   -0.8660    0.5000    0.0000 C   0  0  0  0  0  0  0  0  0  0  0  0
   -1.7321   -0.0000    0.0000 O   0  0  0  0  0  0  0  0  0  0  0  0
    0.0000    0.0000    0.0000 O   0  0  0  0  0  0  0  0  0  0  0  0
  1  2  1  0  0  0  0
  2  3  1  0  0  0  0
  2  4  1  0  0  0  0
  2  5  1  0  0  0  0
  5  6  1  0  0  0  0
  5  7  1  0  0  0  0
  5  8  1  0  0  0  0
  8  9  1  0  0  0  0
  9 10  1  0  0  0  0
 10 11  1  1  0  0  0
 10 12  1  0  0  0  0
 10 16  1  0  0  0  0
 12 13  1  0  0  0  0
 13 14  1  0  0  0  0
 13 15  2  0  0  0  0
 16 17  1  0  0  0  0
 16 18  2  0  0  0  0
M  ISO  4   1   2   3   2   6   2   7   2
M  END
>  <Supplier>
www.ambinter.com

>  <Ambinter_reference>
Amb19130290

>  <MW>
211.272

$$$$
Amb19130294
 OpenBabel08272101412D

 15 14  0  0  1  0  0  0  0  0999 V2000
    2.1340    0.2321    0.0000 H   0  0  0  0  0  0  0  0  0  0  0  0
    1.6340   -0.6340    0.0000 C   0  0  0  0  0  0  0  0  0  0  0  0
    1.6340   -1.6340    0.0000 H   0  0  0  0  0  0  0  0  0  0  0  0
    2.5000   -1.1340    0.0000 H   0  0  0  0  0  0  0  0  0  0  0  0
    0.6340   -0.6340    0.0000 S   0  0  0  0  0  0  0  0  0  0  0  0
    0.1340   -1.5000    0.0000 C   0  0  0  0  0  0  0  0  0  0  0  0
   -0.8660   -1.5000    0.0000 C   0  0  1  0  0  0  0  0  0  0  0  0
   -0.8660   -2.5000    0.0000 H   0  0  0  0  0  0  0  0  0  0  0  0
   -1.8660   -1.5000    0.0000 N   0  0  0  0  0  0  0  0  0  0  0  0
   -2.3660   -2.3660    0.0000 C   0  0  0  0  0  0  0  0  0  0  0  0
   -3.3660   -2.3660    0.0000 C   0  0  0  0  0  0  0  0  0  0  0  0
   -1.8660   -3.2321    0.0000 O   0  0  0  0  0  0  0  0  0  0  0  0
   -0.8660   -0.5000    0.0000 C   0  0  0  0  0  0  0  0  0  0  0  0
   -1.7321   -0.0000    0.0000 O   0  0  0  0  0  0  0  0  0  0  0  0
    0.0000   -0.0000    0.0000 O   0  0  0  0  0  0  0  0  0  0  0  0
  1  2  1  0  0  0  0
  2  3  1  0  0  0  0
  2  4  1  0  0  0  0
  2  5  1  0  0  0  0
  5  6  1  0  0  0  0
  6  7  1  0  0  0  0
  7  8  1  6  0  0  0
  7  9  1  0  0  0  0
  7 13  1  0  0  0  0
  9 10  1  0  0  0  0
 10 11  1  0  0  0  0
 10 12  2  0  0  0  0
 13 14  1  0  0  0  0
 13 15  2  0  0  0  0
M  ISO  3   1   2   3   2   4   2
M  END
>  <Supplier>
www.ambinter.com

>  <Ambinter_reference>
Amb19130294

>  <MW>
180.24

$$$$
Amb19131710
 OpenBabel08272101412D

 14 13  0  0  1  0  0  0  0  0999 V2000
    1.0981    2.3660    0.0000 C   0  0  0  0  0  0  0  0  0  0  0  0
    0.2321    2.8660    0.0000 C   0  0  0  0  0  0  0  0  0  0  0  0
    0.2321    3.8660    0.0000 O   0  0  0  0  0  0  0  0  0  0  0  0
   -0.6340    2.3660    0.0000 S   0  0  0  0  0  0  0  0  0  0  0  0
   -0.6340    1.3660    0.0000 C   0  0  0  0  0  0  0  0  0  0  0  0
   -1.5000    0.8660    0.0000 C   0  0  1  0  0  0  0  0  0  0  0  0
   -2.0000    1.7321    0.0000 H   0  0  0  0  0  0  0  0  0  0  0  0
   -2.3660    0.3660    0.0000 N   0  0  0  0  0  0  0  0  0  0  0  0
   -3.2321    0.8660    0.0000 C   0  0  0  0  0  0  0  0  0  0  0  0
   -4.0981    0.3660    0.0000 C   0  0  0  0  0  0  0  0  0  0  0  0
   -3.2321    1.8660    0.0000 O   0  0  0  0  0  0  0  0  0  0  0  0
   -1.0000    0.0000    0.0000 C   0  0  0  0  0  0  0  0  0  0  0  0
   -1.5000   -0.8660    0.0000 O   0  0  0  0  0  0  0  0  0  0  0  0
   -0.0000   -0.0000    0.0000 O   0  0  0  0  0  0  0  0  0  0  0  0
  1  2  1  0  0  0  0
  2  3  2  0  0  0  0
  2  4  1  0  0  0  0
  4  5  1  0  0  0  0
  5  6  1  0  0  0  0
  6  7  1  1  0  0  0
  6  8  1  0  0  0  0
  6 12  1  0  0  0  0
  8  9  1  0  0  0  0
  9 10  1  0  0  0  0
  9 11  2  0  0  0  0
 12 13  1  0  0  0  0
 12 14  2  0  0  0  0
M  END
>  <Supplier>
www.ambinter.com

>  <Ambinter_reference>
Amb19131710

>  <MW>
205.232

$$$$
Amb20093366
 OpenBabel08272101412D

  9  8  0  0  1  0  0  0  0  0999 V2000
    1.7321   -2.0000    0.0000 O   0  0  0  0  0  0  0  0  0  0  0  0
    2.5981   -1.5000    0.0000 C   0  0  0  0  0  0  0  0  0  0  0  0
    3.4641   -2.0000    0.0000 O   0  0  0  0  0  0  0  0  0  0  0  0
    2.5981   -0.5000    0.0000 C   0  0  3  0  0  0  0  0  0  0  0  0
    3.4641    0.0000    0.0000 C   0  0  0  0  0  0  0  0  0  0  0  0
    4.3301   -0.5000    0.0000 S   0  0  0  0  0  0  0  0  0  0  0  0
    1.7321    0.0000    0.0000 N   0  0  0  0  0  0  0  0  0  0  0  0
    0.8660   -0.5000    0.0000 C   0  0  0  0  0  0  0  0  0  0  0  0
    0.0000    0.0000    0.0000 O   0  0  0  0  0  0  0  0  0  0  0  0
  1  2  1  0  0  0  0
  2  3  2  0  0  0  0
  2  4  1  0  0  0  0
  4  5  1  0  0  0  0
  4  7  1  0  0  0  0
  5  6  1  0  0  0  0
  7  8  1  0  0  0  0
  8  9  2  0  0  0  0
M  END
>  <Supplier>
www.ambinter.com

>  <Ambinter_reference>
Amb20093366

>  <MW>
149.168

$$$$
Amb21937059
 OpenBabel08272101412D

 11 11  0  0  1  0  0  0  0  0999 V2000
   -0.7529   -2.5090    0.0000 O   0  0  0  0  0  0  0  0  0  0  0  0
   -0.1896   -1.6828    0.0000 C   0  0  0  0  0  0  0  0  0  0  0  0
    0.8076   -1.7575    0.0000 O   0  0  0  0  0  0  0  0  0  0  0  0
   -0.6235   -0.7818    0.0000 C   0  0  3  0  0  0  0  0  0  0  0  0
   -1.6235   -0.7818    0.0000 C   0  0  0  0  0  0  0  0  0  0  0  0
   -2.2470   -0.0000    0.0000 S   0  0  0  0  0  0  0  0  0  0  0  0
   -2.0245    0.9749    0.0000 C   0  0  0  0  0  0  0  0  0  0  0  0
   -1.1235    1.4088    0.0000 C   0  0  0  0  0  0  0  0  0  0  0  0
   -0.2225    0.9749    0.0000 C   0  0  0  0  0  0  0  0  0  0  0  0
    0.5593    1.5984    0.0000 O   0  0  0  0  0  0  0  0  0  0  0  0
    0.0000    0.0000    0.0000 N   0  0  0  0  0  0  0  0  0  0  0  0
  1  2  1  0  0  0  0
  2  3  2  0  0  0  0
  2  4  1  0  0  0  0
  4 11  1  0  0  0  0
  4  5  1  0  0  0  0
  5  6  1  0  0  0  0
  6  7  1  0  0  0  0
  7  8  1  0  0  0  0
  8  9  1  0  0  0  0
  9 10  2  0  0  0  0
  9 11  1  0  0  0  0
M  END
>  <Supplier>
www.ambinter.com

>  <Ambinter_reference>
Amb21937059

>  <MW>
175.206

$$$$
Amb22348149
 OpenBabel08272101412D

 16 15  0  0  1  0  0  0  0  0999 V2000
    1.7321    1.0000    0.0000 N   0  0  0  0  0  0  0  0  0  0  0  0
    0.8660    1.5000    0.0000 C   0  0  3  0  0  0  0  0  0  0  0  0
    0.8660    2.5000    0.0000 C   0  0  0  0  0  0  0  0  0  0  0  0
    1.7321    3.0000    0.0000 C   0  0  0  0  0  0  0  0  0  0  0  0
    2.5981    2.5000    0.0000 C   0  0  0  0  0  0  0  0  0  0  0  0
    3.4641    3.0000    0.0000 O   0  0  0  0  0  0  0  0  0  0  0  0
    2.5981    1.5000    0.0000 N   0  0  0  0  0  0  0  0  0  0  0  0
    3.4641    1.0000    0.0000 C   0  0  3  0  0  0  0  0  0  0  0  0
    4.3301    1.5000    0.0000 C   0  0  0  0  0  0  0  0  0  0  0  0
    5.1962    1.0000    0.0000 S   0  0  0  0  0  0  0  0  0  0  0  0
    3.4641   -0.0000    0.0000 C   0  0  0  0  0  0  0  0  0  0  0  0
    4.3301   -0.5000    0.0000 O   0  0  0  0  0  0  0  0  0  0  0  0
    2.5981   -0.5000    0.0000 O   0  0  0  0  0  0  0  0  0  0  0  0
    0.0000    1.0000    0.0000 C   0  0  0  0  0  0  0  0  0  0  0  0
   -0.8660    1.5000    0.0000 O   0  0  0  0  0  0  0  0  0  0  0  0
   -0.0000   -0.0000    0.0000 O   0  0  0  0  0  0  0  0  0  0  0  0
  1  2  1  0  0  0  0
  2  3  1  0  0  0  0
  2 14  1  0  0  0  0
  3  4  1  0  0  0  0
  4  5  1  0  0  0  0
  5  6  2  0  0  0  0
  5  7  1  0  0  0  0
  7  8  1  0  0  0  0
  8  9  1  0  0  0  0
  8 11  1  0  0  0  0
  9 10  1  0  0  0  0
 11 12  1  0  0  0  0
 11 13  2  0  0  0  0
 14 15  1  0  0  0  0
 14 16  2  0  0  0  0
M  END
>  <Supplier>
www.ambinter.com

>  <Ambinter_reference>
Amb22348149

>  <MW>
250.272

$$$$
Amb22349444
 OpenBabel08272101412D

 12 11  0  0  1  0  0  0  0  0999 V2000
    0.7321   -2.7321    0.0000 C   0  0  0  0  0  0  0  0  0  0  0  0
    0.7321   -1.7321    0.0000 C   0  0  0  0  0  0  0  0  0  0  0  0
    1.5981   -1.2321    0.0000 O   0  0  0  0  0  0  0  0  0  0  0  0
   -0.1340   -1.2321    0.0000 N   0  0  0  0  0  0  0  0  0  0  0  0
   -1.0000   -1.7321    0.0000 C   0  0  1  0  0  0  0  0  0  0  0  0
   -0.5000   -2.5981    0.0000 H   0  0  0  0  0  0  0  0  0  0  0  0
   -1.8660   -2.2321    0.0000 C   0  0  0  0  0  0  0  0  0  0  0  0
   -1.8660   -3.2321    0.0000 S   0  0  0  0  0  0  0  0  0  0  0  0
   -1.5000   -0.8660    0.0000 C   0  0  0  0  0  0  0  0  0  0  0  0
   -2.5000   -0.8660    0.0000 O   0  0  0  0  0  0  0  0  0  0  0  0
   -1.0000   -0.0000    0.0000 O   0  0  0  0  0  0  0  0  0  0  0  0
    0.0000    0.0000    0.0000 C   0  0  0  0  0  0  0  0  0  0  0  0
  1  2  1  0  0  0  0
  2  3  2  0  0  0  0
  2  4  1  0  0  0  0
  4  5  1  0  0  0  0
  5  6  1  6  0  0  0
  5  7  1  0  0  0  0
  5  9  1  0  0  0  0
  7  8  1  0  0  0  0
  9 10  2  0  0  0  0
  9 11  1  0  0  0  0
 11 12  1  0  0  0  0
M  END
>  <Supplier>
www.ambinter.com

>  <Ambinter_reference>
Amb22349444

>  <MW>
177.221

$$$$
Amb22351759
 OpenBabel08272101412D

 13 12  0  0  1  0  0  0  0  0999 V2000
   -4.0981    0.6340    0.0000 C   0  0  0  0  0  0  0  0  0  0  0  0
   -3.2321    0.1340    0.0000 C   0  0  0  0  0  0  0  0  0  0  0  0
   -3.2321   -0.8660    0.0000 C   0  0  0  0  0  0  0  0  0  0  0  0
   -2.3660    0.6340    0.0000 C   0  0  0  0  0  0  0  0  0  0  0  0
   -2.3660    1.6340    0.0000 O   0  0  0  0  0  0  0  0  0  0  0  0
   -1.5000    0.1340    0.0000 N   0  0  0  0  0  0  0  0  0  0  0  0
   -1.5000   -0.8660    0.0000 C   0  0  2  0  0  0  0  0  0  0  0  0
   -2.5000   -0.8660    0.0000 H   0  0  0  0  0  0  0  0  0  0  0  0
   -1.5000   -1.8660    0.0000 C   0  0  0  0  0  0  0  0  0  0  0  0
   -2.3660   -2.3660    0.0000 S   0  0  0  0  0  0  0  0  0  0  0  0
   -0.5000   -0.8660    0.0000 C   0  0  0  0  0  0  0  0  0  0  0  0
    0.0000   -1.7321    0.0000 O   0  0  0  0  0  0  0  0  0  0  0  0
    0.0000   -0.0000    0.0000 O   0  0  0  0  0  0  0  0  0  0  0  0
  1  2  1  0  0  0  0
  2  3  1  0  0  0  0
  2  4  1  0  0  0  0
  4  5  2  0  0  0  0
  4  6  1  0  0  0  0
  6  7  1  0  0  0  0
  7  8  1  6  0  0  0
  7  9  1  0  0  0  0
  7 11  1  0  0  0  0
  9 10  1  0  0  0  0
 11 12  1  0  0  0  0
 11 13  2  0  0  0  0
M  END
>  <Supplier>
www.ambinter.com

>  <Ambinter_reference>
Amb22351759

>  <MW>
191.248

$$$$
Amb22369402
 OpenBabel08272101412D

 13 12  0  0  1  0  0  0  0  0999 V2000
   -4.0981    0.6340    0.0000 C   0  0  0  0  0  0  0  0  0  0  0  0
   -3.2321    0.1340    0.0000 C   0  0  0  0  0  0  0  0  0  0  0  0
   -3.2321   -0.8660    0.0000 C   0  0  0  0  0  0  0  0  0  0  0  0
   -2.3660    0.6340    0.0000 C   0  0  0  0  0  0  0  0  0  0  0  0
   -2.3660    1.6340    0.0000 O   0  0  0  0  0  0  0  0  0  0  0  0
   -1.5000    0.1340    0.0000 N   0  0  0  0  0  0  0  0  0  0  0  0
   -1.5000   -0.8660    0.0000 C   0  0  1  0  0  0  0  0  0  0  0  0
   -2.5000   -0.8660    0.0000 H   0  0  0  0  0  0  0  0  0  0  0  0
   -1.5000   -1.8660    0.0000 C   0  0  0  0  0  0  0  0  0  0  0  0
   -2.3660   -2.3660    0.0000 S   0  0  0  0  0  0  0  0  0  0  0  0
   -0.5000   -0.8660    0.0000 C   0  0  0  0  0  0  0  0  0  0  0  0
    0.0000   -1.7321    0.0000 O   0  0  0  0  0  0  0  0  0  0  0  0
    0.0000   -0.0000    0.0000 O   0  0  0  0  0  0  0  0  0  0  0  0
  1  2  1  0  0  0  0
  2  3  1  0  0  0  0
  2  4  1  0  0  0  0
  4  5  2  0  0  0  0
  4  6  1  0  0  0  0
  6  7  1  0  0  0  0
  7  8  1  1  0  0  0
  7  9  1  0  0  0  0
  7 11  1  0  0  0  0
  9 10  1  0  0  0  0
 11 12  1  0  0  0  0
 11 13  2  0  0  0  0
M  END
>  <Supplier>
www.ambinter.com

>  <Ambinter_reference>
Amb22369402

>  <MW>
191.248

$$$$
Amb24120376
 OpenBabel08272101412D

 10  9  0  0  1  0  0  0  0  0999 V2000
    0.8660    0.2321    0.0000 C   0  0  0  0  0  0  0  0  0  0  0  0
    0.8660    1.2321    0.0000 N   0  0  0  0  0  0  0  0  0  0  0  0
    1.7321    1.7321    0.0000 C   0  0  0  0  0  0  0  0  0  0  0  0
    0.0000    1.7321    0.0000 C   0  0  1  0  0  0  0  0  0  0  0  0
    0.5000    2.5981    0.0000 H   0  0  0  0  0  0  0  0  0  0  0  0
   -0.8660    2.2321    0.0000 C   0  0  0  0  0  0  0  0  0  0  0  0
   -0.8660    3.2321    0.0000 S   0  0  0  0  0  0  0  0  0  0  0  0
   -0.5000    0.8660    0.0000 C   0  0  0  0  0  0  0  0  0  0  0  0
   -1.5000    0.8660    0.0000 O   0  0  0  0  0  0  0  0  0  0  0  0
    0.0000    0.0000    0.0000 O   0  0  0  0  0  0  0  0  0  0  0  0
  1  2  1  0  0  0  0
  2  3  1  0  0  0  0
  2  4  1  0  0  0  0
  4  5  1  1  0  0  0
  4  6  1  0  0  0  0
  4  8  1  0  0  0  0
  6  7  1  0  0  0  0
  8  9  1  0  0  0  0
  8 10  2  0  0  0  0
M  END
>  <Supplier>
www.ambinter.com

>  <Ambinter_reference>
Amb24120376

>  <MW>
149.211

$$$$
Amb24334738
 OpenBabel08272101412D

 11 10  0  0  1  0  0  0  0  0999 V2000
   -2.1340   -1.5000    0.0000 N   0  0  0  0  0  0  0  0  0  0  0  0
   -1.6340   -2.3660    0.0000 C   0  0  0  0  0  0  0  0  0  0  0  0
   -0.6340   -2.3660    0.0000 C   0  0  0  0  0  0  0  0  0  0  0  0
   -0.1340   -1.5000    0.0000 N   0  0  0  0  0  0  0  0  0  0  0  0
    0.8660   -1.5000    0.0000 C   0  0  2  0  0  0  0  0  0  0  0  0
    0.8660   -2.5000    0.0000 H   0  0  0  0  0  0  0  0  0  0  0  0
    1.8660   -1.5000    0.0000 C   0  0  0  0  0  0  0  0  0  0  0  0
    2.3660   -0.6340    0.0000 S   0  0  0  0  0  0  0  0  0  0  0  0
    0.8660   -0.5000    0.0000 C   0  0  0  0  0  0  0  0  0  0  0  0
    1.7321    0.0000    0.0000 O   0  0  0  0  0  0  0  0  0  0  0  0
    0.0000   -0.0000    0.0000 O   0  0  0  0  0  0  0  0  0  0  0  0
  1  2  1  0  0  0  0
  2  3  1  0  0  0  0
  3  4  1  0  0  0  0
  4  5  1  0  0  0  0
  5  6  1  6  0  0  0
  5  7  1  0  0  0  0
  5  9  1  0  0  0  0
  7  8  1  0  0  0  0
  9 10  1  0  0  0  0
  9 11  2  0  0  0  0
M  END
>  <Supplier>
www.ambinter.com

>  <Ambinter_reference>
Amb24334738

>  <MW>
164.226

$$$$
Amb24369164
 OpenBabel08272101412D

  9  8  0  0  1  0  0  0  0  0999 V2000
    0.8660    0.5000    0.0000 O   0  0  0  0  0  0  0  0  0  0  0  0
    0.8660    1.5000    0.0000 C   0  0  0  0  0  0  0  0  0  0  0  0
    0.0000    2.0000    0.0000 N   0  0  0  0  0  0  0  0  0  0  0  0
   -0.8660    1.5000    0.0000 C   0  0  3  0  0  0  0  0  0  0  0  0
   -1.7321    2.0000    0.0000 C   0  0  0  0  0  0  0  0  0  0  0  0
   -2.5981    1.5000    0.0000 S   0  0  0  0  0  0  0  0  0  0  0  0
   -0.8660    0.5000    0.0000 C   0  0  0  0  0  0  0  0  0  0  0  0
   -1.7321    0.0000    0.0000 O   0  0  0  0  0  0  0  0  0  0  0  0
    0.0000    0.0000    0.0000 O   0  0  0  0  0  0  0  0  0  0  0  0
  1  2  1  0  0  0  0
  2  3  1  0  0  0  0
  3  4  1  0  0  0  0
  4  5  1  0  0  0  0
  4  7  1  0  0  0  0
  5  6  1  0  0  0  0
  7  8  1  0  0  0  0
  7  9  2  0  0  0  0
M  END
>  <Supplier>
www.ambinter.com

>  <Ambinter_reference>
Amb24369164

>  <MW>
151.184

$$$$
Amb24396389
 OpenBabel08272101412D

 14 14  0  0  1  0  0  0  0  0999 V2000
    0.8660   -3.5000    0.0000 C   0  0  0  0  0  0  0  0  0  0  0  0
    1.7321   -3.0000    0.0000 N   0  0  0  0  0  0  0  0  0  0  0  0
    1.7321   -2.0000    0.0000 C   0  0  0  0  0  0  0  0  0  0  0  0
    2.5981   -1.5000    0.0000 O   0  0  0  0  0  0  0  0  0  0  0  0
    0.8660   -1.5000    0.0000 C   0  0  0  0  0  0  0  0  0  0  0  0
    0.8660   -0.5000    0.0000 N   0  0  0  0  0  0  0  0  0  0  0  0
    1.7321   -0.0000    0.0000 C   0  0  0  0  0  0  0  0  0  0  0  0
    1.7321    1.0000    0.0000 C   0  0  0  0  0  0  0  0  0  0  0  0
    0.8660    1.5000    0.0000 S   0  0  0  0  0  0  0  0  0  0  0  0
    0.0000    1.0000    0.0000 C   0  0  0  0  0  0  0  0  0  0  0  0
    0.0000    0.0000    0.0000 C   0  0  3  0  0  0  0  0  0  0  0  0
   -0.8660   -0.5000    0.0000 C   0  0  0  0  0  0  0  0  0  0  0  0
   -0.8660   -1.5000    0.0000 O   0  0  0  0  0  0  0  0  0  0  0  0
   -1.7321    0.0000    0.0000 O   0  0  0  0  0  0  0  0  0  0  0  0
  1  2  1  0  0  0  0
  2  3  1  0  0  0  0
  3  4  2  0  0  0  0
  3  5  1  0  0  0  0
  5  6  1  0  0  0  0
  6 11  1  0  0  0  0
  6  7  1  0  0  0  0
  7  8  1  0  0  0  0
  8  9  1  0  0  0  0
  9 10  1  0  0  0  0
 10 11  1  0  0  0  0
 11 12  1  0  0  0  0
 12 13  1  0  0  0  0
 12 14  2  0  0  0  0
M  END
>  <Supplier>
www.ambinter.com

>  <Ambinter_reference>
Amb24396389

>  <MW>
218.273

$$$$
Amb24405547
 OpenBabel08272101412D

 10  9  0  0  1  0  0  0  0  0999 V2000
    0.8660    0.2321    0.0000 C   0  0  0  0  0  0  0  0  0  0  0  0
    0.8660    1.2321    0.0000 N   0  0  0  0  0  0  0  0  0  0  0  0
    1.7321    1.7321    0.0000 C   0  0  0  0  0  0  0  0  0  0  0  0
    0.0000    1.7321    0.0000 C   0  0  2  0  0  0  0  0  0  0  0  0
    0.5000    2.5981    0.0000 H   0  0  0  0  0  0  0  0  0  0  0  0
   -0.8660    2.2321    0.0000 C   0  0  0  0  0  0  0  0  0  0  0  0
   -0.8660    3.2321    0.0000 S   0  0  0  0  0  0  0  0  0  0  0  0
   -0.5000    0.8660    0.0000 C   0  0  0  0  0  0  0  0  0  0  0  0
   -1.5000    0.8660    0.0000 O   0  0  0  0  0  0  0  0  0  0  0  0
    0.0000    0.0000    0.0000 O   0  0  0  0  0  0  0  0  0  0  0  0
  1  2  1  0  0  0  0
  2  3  1  0  0  0  0
  2  4  1  0  0  0  0
  4  5  1  6  0  0  0
  4  6  1  0  0  0  0
  4  8  1  0  0  0  0
  6  7  1  0  0  0  0
  8  9  1  0  0  0  0
  8 10  2  0  0  0  0
M  END
>  <Supplier>
www.ambinter.com

>  <Ambinter_reference>
Amb24405547

>  <MW>
149.211

$$$$
Amb24433847
 OpenBabel08272101412D

 12 12  0  0  1  0  0  0  0  0999 V2000
   -1.7321   -2.0000    0.0000 C   0  0  0  0  0  0  0  0  0  0  0  0
   -0.8660   -1.5000    0.0000 C   0  0  0  0  0  0  0  0  0  0  0  0
   -0.0000   -2.0000    0.0000 O   0  0  0  0  0  0  0  0  0  0  0  0
   -0.8660   -0.5000    0.0000 N   0  0  0  0  0  0  0  0  0  0  0  0
   -1.7321   -0.0000    0.0000 C   0  0  0  0  0  0  0  0  0  0  0  0
   -1.7321    1.0000    0.0000 C   0  0  0  0  0  0  0  0  0  0  0  0
   -0.8660    1.5000    0.0000 S   0  0  0  0  0  0  0  0  0  0  0  0
   -0.0000    1.0000    0.0000 C   0  0  0  0  0  0  0  0  0  0  0  0
    0.0000    0.0000    0.0000 C   0  0  3  0  0  0  0  0  0  0  0  0
    0.8660   -0.5000    0.0000 C   0  0  0  0  0  0  0  0  0  0  0  0
    0.8660   -1.5000    0.0000 O   0  0  0  0  0  0  0  0  0  0  0  0
    1.7321    0.0000    0.0000 O   0  0  0  0  0  0  0  0  0  0  0  0
  1  2  1  0  0  0  0
  2  3  2  0  0  0  0
  2  4  1  0  0  0  0
  4  9  1  0  0  0  0
  4  5  1  0  0  0  0
  5  6  1  0  0  0  0
  6  7  1  0  0  0  0
  7  8  1  0  0  0  0
  8  9  1  0  0  0  0
  9 10  1  0  0  0  0
 10 11  1  0  0  0  0
 10 12  2  0  0  0  0
M  END
>  <Supplier>
www.ambinter.com

>  <Ambinter_reference>
Amb24433847

>  <MW>
189.232

$$$$
Amb24469319
 OpenBabel08272101412D

 12 12  0  0  1  0  0  0  0  0999 V2000
    0.5063   -2.0947    0.0000 O   0  0  0  0  0  0  0  0  0  0  0  0
    0.3204   -1.1121    0.0000 C   0  0  0  0  0  0  0  0  0  0  0  0
    1.0784   -0.4598    0.0000 O   0  0  0  0  0  0  0  0  0  0  0  0
   -0.6235   -0.7818    0.0000 C   0  0  2  0  0  0  0  0  0  0  0  0
   -1.4059   -1.4046    0.0000 H   0  0  0  0  0  0  0  0  0  0  0  0
   -1.6235   -0.7818    0.0000 C   0  0  0  0  0  0  0  0  0  0  0  0
   -2.2470   -0.0000    0.0000 S   0  0  0  0  0  0  0  0  0  0  0  0
   -2.0245    0.9749    0.0000 C   0  0  0  0  0  0  0  0  0  0  0  0
   -1.1235    1.4088    0.0000 C   0  0  0  0  0  0  0  0  0  0  0  0
   -0.2225    0.9749    0.0000 C   0  0  0  0  0  0  0  0  0  0  0  0
    0.5593    1.5984    0.0000 O   0  0  0  0  0  0  0  0  0  0  0  0
   -0.0000   -0.0000    0.0000 N   0  0  0  0  0  0  0  0  0  0  0  0
  1  2  1  0  0  0  0
  2  3  2  0  0  0  0
  2  4  1  0  0  0  0
  4  5  1  1  0  0  0
  4 12  1  0  0  0  0
  4  6  1  0  0  0  0
  6  7  1  0  0  0  0
  7  8  1  0  0  0  0
  8  9  1  0  0  0  0
  9 10  1  0  0  0  0
 10 11  2  0  0  0  0
 10 12  1  0  0  0  0
M  END
>  <Supplier>
www.ambinter.com

>  <Ambinter_reference>
Amb24469319

>  <MW>
175.206

$$$$
Amb24477457
 OpenBabel08272101412D

 10  9  0  0  1  0  0  0  0  0999 V2000
    0.8660    0.5000    0.0000 N   0  0  0  0  0  0  0  0  0  0  0  0
    0.0000    1.0000    0.0000 C   0  0  0  0  0  0  0  0  0  0  0  0
   -0.8660    1.5000    0.0000 C   0  0  0  0  0  0  0  0  0  0  0  0
   -1.7321    1.0000    0.0000 N   0  0  0  0  0  0  0  0  0  0  0  0
   -1.7321   -0.0000    0.0000 C   0  0  3  0  0  0  0  0  0  0  0  0
   -2.5981   -0.5000    0.0000 C   0  0  0  0  0  0  0  0  0  0  0  0
   -2.5981   -1.5000    0.0000 S   0  0  0  0  0  0  0  0  0  0  0  0
   -0.8660   -0.5000    0.0000 C   0  0  0  0  0  0  0  0  0  0  0  0
   -0.8660   -1.5000    0.0000 O   0  0  0  0  0  0  0  0  0  0  0  0
   -0.0000   -0.0000    0.0000 O   0  0  0  0  0  0  0  0  0  0  0  0
  1  2  3  0  0  0  0
  2  3  1  0  0  0  0
  3  4  1  0  0  0  0
  4  5  1  0  0  0  0
  5  6  1  0  0  0  0
  5  8  1  0  0  0  0
  6  7  1  0  0  0  0
  8  9  1  0  0  0  0
  8 10  2  0  0  0  0
M  END
>  <Supplier>
www.ambinter.com

>  <Ambinter_reference>
Amb24477457

>  <MW>
160.194

$$$$
Amb24482466
 OpenBabel08272101412D

 10  9  0  0  1  0  0  0  0  0999 V2000
    3.4641    0.0000    0.0000 N   0  0  0  0  0  0  0  0  0  0  0  0
    3.4641    1.0000    0.0000 C   0  0  0  0  0  0  0  0  0  0  0  0
    2.5981    1.5000    0.0000 C   0  0  0  0  0  0  0  0  0  0  0  0
    1.7321    1.0000    0.0000 N   0  0  0  0  0  0  0  0  0  0  0  0
    0.8660    1.5000    0.0000 C   0  0  3  0  0  0  0  0  0  0  0  0
    0.8660    2.5000    0.0000 C   0  0  0  0  0  0  0  0  0  0  0  0
   -0.0000    3.0000    0.0000 S   0  0  0  0  0  0  0  0  0  0  0  0
   -0.0000    1.0000    0.0000 C   0  0  0  0  0  0  0  0  0  0  0  0
   -0.8660    1.5000    0.0000 O   0  0  0  0  0  0  0  0  0  0  0  0
   -0.0000   -0.0000    0.0000 O   0  0  0  0  0  0  0  0  0  0  0  0
  1  2  1  0  0  0  0
  2  3  1  0  0  0  0
  3  4  1  0  0  0  0
  4  5  1  0  0  0  0
  5  6  1  0  0  0  0
  5  8  1  0  0  0  0
  6  7  1  0  0  0  0
  8  9  1  0  0  0  0
  8 10  2  0  0  0  0
M  END
>  <Supplier>
www.ambinter.com

>  <Ambinter_reference>
Amb24482466

>  <MW>
164.226

$$$$
Amb24692505
 OpenBabel08272101412D

 10  9  0  0  1  0  0  0  0  0999 V2000
    1.6340   -0.6340    0.0000 C   0  0  0  0  0  0  0  0  0  0  0  0
    0.6340   -0.6340    0.0000 C   0  0  0  0  0  0  0  0  0  0  0  0
    0.1340   -1.5000    0.0000 N   0  0  0  0  0  0  0  0  0  0  0  0
   -0.8660   -1.5000    0.0000 C   0  0  2  0  0  0  0  0  0  0  0  0
   -0.8660   -2.5000    0.0000 H   0  0  0  0  0  0  0  0  0  0  0  0
   -1.8660   -1.5000    0.0000 C   0  0  0  0  0  0  0  0  0  0  0  0
   -2.3660   -2.3660    0.0000 S   0  0  0  0  0  0  0  0  0  0  0  0
   -0.8660   -0.5000    0.0000 C   0  0  0  0  0  0  0  0  0  0  0  0
   -1.7321   -0.0000    0.0000 O   0  0  0  0  0  0  0  0  0  0  0  0
   -0.0000   -0.0000    0.0000 O   0  0  0  0  0  0  0  0  0  0  0  0
  1  2  1  0  0  0  0
  2  3  1  0  0  0  0
  3  4  1  0  0  0  0
  4  5  1  1  0  0  0
  4  6  1  0  0  0  0
  4  8  1  0  0  0  0
  6  7  1  0  0  0  0
  8  9  1  0  0  0  0
  8 10  2  0  0  0  0
M  END
>  <Supplier>
www.ambinter.com

>  <Ambinter_reference>
Amb24692505

>  <MW>
149.211

$$$$
Amb24710832
 OpenBabel08272101412D

 11 10  0  0  1  0  0  0  0  0999 V2000
   -2.1340   -1.5000    0.0000 C   0  0  0  0  0  0  0  0  0  0  0  0
   -1.6340   -2.3660    0.0000 C   0  0  0  0  0  0  0  0  0  0  0  0
   -0.6340   -2.3660    0.0000 C   0  0  0  0  0  0  0  0  0  0  0  0
   -0.1340   -1.5000    0.0000 N   0  0  0  0  0  0  0  0  0  0  0  0
    0.8660   -1.5000    0.0000 C   0  0  2  0  0  0  0  0  0  0  0  0
    0.8660   -2.5000    0.0000 H   0  0  0  0  0  0  0  0  0  0  0  0
    1.8660   -1.5000    0.0000 C   0  0  0  0  0  0  0  0  0  0  0  0
    2.3660   -0.6340    0.0000 S   0  0  0  0  0  0  0  0  0  0  0  0
    0.8660   -0.5000    0.0000 C   0  0  0  0  0  0  0  0  0  0  0  0
    1.7321    0.0000    0.0000 O   0  0  0  0  0  0  0  0  0  0  0  0
    0.0000   -0.0000    0.0000 O   0  0  0  0  0  0  0  0  0  0  0  0
  1  2  2  0  0  0  0
  2  3  1  0  0  0  0
  3  4  1  0  0  0  0
  4  5  1  0  0  0  0
  5  6  1  6  0  0  0
  5  7  1  0  0  0  0
  5  9  1  0  0  0  0
  7  8  1  0  0  0  0
  9 10  1  0  0  0  0
  9 11  2  0  0  0  0
M  END
>  <Supplier>
www.ambinter.com

>  <Ambinter_reference>
Amb24710832

>  <MW>
161.222

$$$$
Amb24727230
 OpenBabel08272101412D

 10  9  0  0  1  0  0  0  0  0999 V2000
   -1.6340    0.6340    0.0000 O   0  0  0  0  0  0  0  0  0  0  0  0
   -2.5000    0.1340    0.0000 C   0  0  0  0  0  0  0  0  0  0  0  0
   -3.3660    0.6340    0.0000 O   0  0  0  0  0  0  0  0  0  0  0  0
   -2.5000   -0.8660    0.0000 C   0  0  2  0  0  0  0  0  0  0  0  0
   -3.5000   -0.8660    0.0000 H   0  0  0  0  0  0  0  0  0  0  0  0
   -2.5000   -1.8660    0.0000 C   0  0  0  0  0  0  0  0  0  0  0  0
   -1.6340   -2.3660    0.0000 S   0  0  0  0  0  0  0  0  0  0  0  0
   -1.5000   -0.8660    0.0000 N   0  0  0  0  0  0  0  0  0  0  0  0
   -1.0000    0.0000    0.0000 C   0  0  0  0  0  0  0  0  0  0  0  0
    0.0000   -0.0000    0.0000 O   0  0  0  0  0  0  0  0  0  0  0  0
  1  2  1  0  0  0  0
  2  3  2  0  0  0  0
  2  4  1  0  0  0  0
  4  5  1  6  0  0  0
  4  6  1  0  0  0  0
  4  8  1  0  0  0  0
  6  7  1  0  0  0  0
  8  9  1  0  0  0  0
  9 10  2  0  0  0  0
M  END
>  <Supplier>
www.ambinter.com

>  <Ambinter_reference>
Amb24727230

>  <MW>
149.168

$$$$
Amb24765409
 OpenBabel08272101412D

 12 11  0  0  1  0  0  0  0  0999 V2000
    0.7321   -2.7321    0.0000 C   0  0  0  0  0  0  0  0  0  0  0  0
    0.7321   -1.7321    0.0000 C   0  0  0  0  0  0  0  0  0  0  0  0
    1.5981   -1.2321    0.0000 O   0  0  0  0  0  0  0  0  0  0  0  0
   -0.1340   -1.2321    0.0000 N   0  0  0  0  0  0  0  0  0  0  0  0
   -1.0000   -1.7321    0.0000 C   0  0  1  0  0  0  0  0  0  0  0  0
   -0.5000   -2.5981    0.0000 H   0  0  0  0  0  0  0  0  0  0  0  0
   -1.8660   -2.2321    0.0000 C   0  0  0  0  0  0  0  0  0  0  0  0
   -1.8660   -3.2321    0.0000 S   0  0  0  0  0  0  0  0  0  0  0  0
   -1.5000   -0.8660    0.0000 C   0  0  0  0  0  0  0  0  0  0  0  0
   -2.5000   -0.8660    0.0000 O   0  0  0  0  0  0  0  0  0  0  0  0
   -1.0000   -0.0000    0.0000 O   0  0  0  0  0  0  0  0  0  0  0  0
    0.0000    0.0000    0.0000 N   0  0  0  0  0  0  0  0  0  0  0  0
  1  2  1  0  0  0  0
  2  3  2  0  0  0  0
  2  4  1  0  0  0  0
  4  5  1  0  0  0  0
  5  6  1  6  0  0  0
  5  7  1  0  0  0  0
  5  9  1  0  0  0  0
  7  8  1  0  0  0  0
  9 10  2  0  0  0  0
  9 11  1  0  0  0  0
 11 12  1  0  0  0  0
M  END
>  <Supplier>
www.ambinter.com

>  <Ambinter_reference>
Amb24765409

>  <MW>
178.21

$$$$
Amb24766791
 OpenBabel08272101412D

 11 10  0  0  1  0  0  0  0  0999 V2000
    0.8660    1.5000    0.0000 C   0  0  0  0  0  0  0  0  0  0  0  0
    0.8660    2.5000    0.0000 C   0  0  0  0  0  0  0  0  0  0  0  0
    1.7321    3.0000    0.0000 O   0  0  0  0  0  0  0  0  0  0  0  0
    0.0000    3.0000    0.0000 N   0  0  0  0  0  0  0  0  0  0  0  0
   -0.8660    2.5000    0.0000 C   0  0  3  0  0  0  0  0  0  0  0  0
   -1.7321    3.0000    0.0000 C   0  0  0  0  0  0  0  0  0  0  0  0
   -2.5981    2.5000    0.0000 S   0  0  0  0  0  0  0  0  0  0  0  0
   -0.8660    1.5000    0.0000 C   0  0  0  0  0  0  0  0  0  0  0  0
   -1.7321    1.0000    0.0000 O   0  0  0  0  0  0  0  0  0  0  0  0
   -0.0000    1.0000    0.0000 O   0  0  0  0  0  0  0  0  0  0  0  0
    0.0000    0.0000    0.0000 N   0  0  0  0  0  0  0  0  0  0  0  0
  1  2  1  0  0  0  0
  2  3  2  0  0  0  0
  2  4  1  0  0  0  0
  4  5  1  0  0  0  0
  5  6  1  0  0  0  0
  5  8  1  0  0  0  0
  6  7  1  0  0  0  0
  8  9  2  0  0  0  0
  8 10  1  0  0  0  0
 10 11  1  0  0  0  0
M  END
>  <Supplier>
www.ambinter.com

>  <Ambinter_reference>
Amb24766791

>  <MW>
178.21

$$$$
Amb25088344
 OpenBabel08272101412D

 12 10  0  0  1  0  0  0  0  0999 V2000
   -0.4539    0.1836    0.0000 Cl  0  5  0  0  0  0  0  0  0  0  0  0
    3.0000   -2.5000    0.0000 C   0  0  0  0  0  0  0  0  0  0  0  0
    3.0000   -1.5000    0.0000 N   0  3  0  0  0  0  0  0  0  0  0  0
    4.0000   -1.5000    0.0000 C   0  0  0  0  0  0  0  0  0  0  0  0
    3.0000   -0.5000    0.0000 C   0  0  0  0  0  0  0  0  0  0  0  0
    2.0000   -1.5000    0.0000 C   0  0  1  0  0  0  0  0  0  0  0  0
    2.0000   -0.5000    0.0000 H   0  0  0  0  0  0  0  0  0  0  0  0
    1.0000   -1.5000    0.0000 C   0  0  0  0  0  0  0  0  0  0  0  0
    0.5000   -2.3660    0.0000 S   0  0  0  0  0  0  0  0  0  0  0  0
    2.0000   -2.5000    0.0000 C   0  0  0  0  0  0  0  0  0  0  0  0
    1.1340   -3.0000    0.0000 O   0  0  0  0  0  0  0  0  0  0  0  0
    2.8660   -3.0000    0.0000 O   0  0  0  0  0  0  0  0  0  0  0  0
  2  3  1  0  0  0  0
  3  4  1  0  0  0  0
  3  5  1  0  0  0  0
  3  6  1  0  0  0  0
  6  7  1  1  0  0  0
  6  8  1  0  0  0  0
  6 10  1  0  0  0  0
  8  9  1  0  0  0  0
 10 11  1  0  0  0  0
 10 12  2  0  0  0  0
M  CHG  2   1  -1   3   1
M  END
>  <Supplier>
www.ambinter.com

>  <Ambinter_reference>
Amb25088344

>  <MW>
199.699

$$$$
Amb25258336
 OpenBabel08272101412D

 11 10  0  0  1  0  0  0  0  0999 V2000
    1.6340   -0.6340    0.0000 C   0  0  0  0  0  0  0  0  0  0  0  0
    0.6340   -0.6340    0.0000 S   0  0  0  0  0  0  0  0  0  0  0  0
    0.1340   -1.5000    0.0000 C   0  0  0  0  0  0  0  0  0  0  0  0
   -0.8660   -1.5000    0.0000 C   0  0  2  0  0  0  0  0  0  0  0  0
   -0.8660   -2.5000    0.0000 H   0  0  0  0  0  0  0  0  0  0  0  0
   -1.8660   -1.5000    0.0000 N   0  0  0  0  0  0  0  0  0  0  0  0
   -2.3660   -2.3660    0.0000 C   0  0  0  0  0  0  0  0  0  0  0  0
   -3.3660   -2.3660    0.0000 O   0  0  0  0  0  0  0  0  0  0  0  0
   -0.8660   -0.5000    0.0000 C   0  0  0  0  0  0  0  0  0  0  0  0
   -1.7321   -0.0000    0.0000 O   0  0  0  0  0  0  0  0  0  0  0  0
   -0.0000   -0.0000    0.0000 O   0  0  0  0  0  0  0  0  0  0  0  0
  1  2  1  0  0  0  0
  2  3  1  0  0  0  0
  3  4  1  0  0  0  0
  4  5  1  1  0  0  0
  4  6  1  0  0  0  0
  4  9  1  0  0  0  0
  6  7  1  0  0  0  0
  7  8  2  0  0  0  0
  9 10  1  0  0  0  0
  9 11  2  0  0  0  0
M  END
>  <Supplier>
www.ambinter.com

>  <Ambinter_reference>
Amb25258336

>  <MW>
163.195

$$$$
Amb25299344
 OpenBabel08272101412D

 11 10  0  0  1  0  0  0  0  0999 V2000
    1.7321   -2.7321    0.0000 C   0  0  0  0  0  0  0  0  0  0  0  0
    1.7321   -1.7321    0.0000 C   0  0  0  0  0  0  0  0  0  0  0  0
    2.5981   -1.2321    0.0000 C   0  0  0  0  0  0  0  0  0  0  0  0
    0.8660   -1.2321    0.0000 N   0  0  0  0  0  0  0  0  0  0  0  0
    0.0000   -1.7321    0.0000 C   0  0  1  0  0  0  0  0  0  0  0  0
    0.5000   -2.5981    0.0000 H   0  0  0  0  0  0  0  0  0  0  0  0
   -0.8660   -2.2321    0.0000 C   0  0  0  0  0  0  0  0  0  0  0  0
   -0.8660   -3.2321    0.0000 S   0  0  0  0  0  0  0  0  0  0  0  0
   -0.5000   -0.8660    0.0000 C   0  0  0  0  0  0  0  0  0  0  0  0
   -1.5000   -0.8660    0.0000 O   0  0  0  0  0  0  0  0  0  0  0  0
    0.0000    0.0000    0.0000 O   0  0  0  0  0  0  0  0  0  0  0  0
  1  2  1  0  0  0  0
  2  3  1  0  0  0  0
  2  4  1  0  0  0  0
  4  5  1  0  0  0  0
  5  6  1  6  0  0  0
  5  7  1  0  0  0  0
  5  9  1  0  0  0  0
  7  8  1  0  0  0  0
  9 10  1  0  0  0  0
  9 11  2  0  0  0  0
M  END
>  <Supplier>
www.ambinter.com

>  <Ambinter_reference>
Amb25299344

>  <MW>
163.238

$$$$
Amb25363429
 OpenBabel08272101412D

 11 10  0  0  1  0  0  0  0  0999 V2000
    1.7321   -2.7321    0.0000 C   0  0  0  0  0  0  0  0  0  0  0  0
    1.7321   -1.7321    0.0000 C   0  0  0  0  0  0  0  0  0  0  0  0
    2.5981   -1.2321    0.0000 O   0  0  0  0  0  0  0  0  0  0  0  0
    0.8660   -1.2321    0.0000 N   0  0  0  0  0  0  0  0  0  0  0  0
    0.0000   -1.7321    0.0000 C   0  0  3  0  0  0  0  0  0  0  0  0
    0.5000   -2.5981    0.0000 C   0  0  0  0  0  0  0  0  0  0  0  0
   -0.8660   -2.2321    0.0000 C   0  0  0  0  0  0  0  0  0  0  0  0
   -0.8660   -3.2321    0.0000 S   0  0  0  0  0  0  0  0  0  0  0  0
   -0.5000   -0.8660    0.0000 C   0  0  0  0  0  0  0  0  0  0  0  0
   -1.5000   -0.8660    0.0000 O   0  0  0  0  0  0  0  0  0  0  0  0
    0.0000    0.0000    0.0000 O   0  0  0  0  0  0  0  0  0  0  0  0
  1  2  1  0  0  0  0
  2  3  2  0  0  0  0
  2  4  1  0  0  0  0
  4  5  1  0  0  0  0
  5  6  1  0  0  0  0
  5  7  1  0  0  0  0
  5  9  1  0  0  0  0
  7  8  1  0  0  0  0
  9 10  1  0  0  0  0
  9 11  2  0  0  0  0
M  END
>  <Supplier>
www.ambinter.com

>  <Ambinter_reference>
Amb25363429

>  <MW>
177.221

$$$$
Amb25383450
 OpenBabel08272101412D

 11 10  0  0  1  0  0  0  0  0999 V2000
    0.8660    0.5000    0.0000 C   0  0  0  0  0  0  0  0  0  0  0  0
    0.8660    1.5000    0.0000 C   0  0  0  0  0  0  0  0  0  0  0  0
    1.7321    2.0000    0.0000 O   0  0  0  0  0  0  0  0  0  0  0  0
    0.0000    2.0000    0.0000 N   0  0  0  0  0  0  0  0  0  0  0  0
   -0.8660    1.5000    0.0000 C   0  0  3  0  0  0  0  0  0  0  0  0
   -1.7321    2.0000    0.0000 C   0  0  0  0  0  0  0  0  0  0  0  0
   -2.5981    1.5000    0.0000 S   0  0  0  0  0  0  0  0  0  0  0  0
   -3.4641    2.0000    0.0000 Cl  0  0  0  0  0  0  0  0  0  0  0  0
   -0.8660    0.5000    0.0000 C   0  0  0  0  0  0  0  0  0  0  0  0
   -1.7321    0.0000    0.0000 O   0  0  0  0  0  0  0  0  0  0  0  0
    0.0000    0.0000    0.0000 O   0  0  0  0  0  0  0  0  0  0  0  0
  1  2  1  0  0  0  0
  2  3  2  0  0  0  0
  2  4  1  0  0  0  0
  4  5  1  0  0  0  0
  5  6  1  0  0  0  0
  5  9  1  0  0  0  0
  6  7  1  0  0  0  0
  7  8  1  0  0  0  0
  9 10  1  0  0  0  0
  9 11  2  0  0  0  0
M  END
>  <Supplier>
www.ambinter.com

>  <Ambinter_reference>
Amb25383450

>  <MW>
197.64

$$$$
Amb25384888
 OpenBabel08272101412D

 11 10  0  0  1  0  0  0  0  0999 V2000
    3.4641   -0.0000    0.0000 N   0  0  0  0  0  0  0  0  0  0  0  0
    3.4641    1.0000    0.0000 C   0  0  0  0  0  0  0  0  0  0  0  0
    2.5981    1.5000    0.0000 C   0  0  0  0  0  0  0  0  0  0  0  0
    2.5981    2.5000    0.0000 O   0  0  0  0  0  0  0  0  0  0  0  0
    1.7321    1.0000    0.0000 N   0  0  0  0  0  0  0  0  0  0  0  0
    0.8660    1.5000    0.0000 C   0  0  3  0  0  0  0  0  0  0  0  0
    0.8660    2.5000    0.0000 C   0  0  0  0  0  0  0  0  0  0  0  0
   -0.0000    3.0000    0.0000 S   0  0  0  0  0  0  0  0  0  0  0  0
   -0.0000    1.0000    0.0000 C   0  0  0  0  0  0  0  0  0  0  0  0
   -0.8660    1.5000    0.0000 O   0  0  0  0  0  0  0  0  0  0  0  0
    0.0000    0.0000    0.0000 O   0  0  0  0  0  0  0  0  0  0  0  0
  1  2  1  0  0  0  0
  2  3  1  0  0  0  0
  3  4  2  0  0  0  0
  3  5  1  0  0  0  0
  5  6  1  0  0  0  0
  6  7  1  0  0  0  0
  6  9  1  0  0  0  0
  7  8  1  0  0  0  0
  9 10  1  0  0  0  0
  9 11  2  0  0  0  0
M  END
>  <Supplier>
www.ambinter.com

>  <Ambinter_reference>
Amb25384888

>  <MW>
178.21

$$$$
Amb25384898
 OpenBabel08272101412D

 12 11  0  0  1  0  0  0  0  0999 V2000
    1.7321   -2.7321    0.0000 C   0  0  0  0  0  0  0  0  0  0  0  0
    1.7321   -1.7321    0.0000 C   0  0  0  0  0  0  0  0  0  0  0  0
    2.5981   -1.2321    0.0000 O   0  0  0  0  0  0  0  0  0  0  0  0
    0.8660   -1.2321    0.0000 N   0  0  0  0  0  0  0  0  0  0  0  0
    0.8660   -0.2321    0.0000 C   0  0  0  0  0  0  0  0  0  0  0  0
    0.0000   -1.7321    0.0000 C   0  0  1  0  0  0  0  0  0  0  0  0
    0.5000   -2.5981    0.0000 H   0  0  0  0  0  0  0  0  0  0  0  0
   -0.8660   -2.2321    0.0000 C   0  0  0  0  0  0  0  0  0  0  0  0
   -1.7321   -1.7321    0.0000 S   0  0  0  0  0  0  0  0  0  0  0  0
   -0.5000   -0.8660    0.0000 C   0  0  0  0  0  0  0  0  0  0  0  0
   -1.5000   -0.8660    0.0000 O   0  0  0  0  0  0  0  0  0  0  0  0
   -0.0000   -0.0000    0.0000 O   0  0  0  0  0  0  0  0  0  0  0  0
  1  2  1  0  0  0  0
  2  3  2  0  0  0  0
  2  4  1  0  0  0  0
  4  5  1  0  0  0  0
  4  6  1  0  0  0  0
  6  7  1  6  0  0  0
  6  8  1  0  0  0  0
  6 10  1  0  0  0  0
  8  9  1  0  0  0  0
 10 11  1  0  0  0  0
 10 12  2  0  0  0  0
M  END
>  <Supplier>
www.ambinter.com

>  <Ambinter_reference>
Amb25384898

>  <MW>
177.221

$$$$
Amb25385898
 OpenBabel08272101412D

 12 11  0  0  1  0  0  0  0  0999 V2000
    0.7321   -2.7321    0.0000 C   0  0  0  0  0  0  0  0  0  0  0  0
    0.7321   -1.7321    0.0000 C   0  0  0  0  0  0  0  0  0  0  0  0
    1.5981   -1.2321    0.0000 O   0  0  0  0  0  0  0  0  0  0  0  0
   -0.1340   -1.2321    0.0000 N   0  0  0  0  0  0  0  0  0  0  0  0
   -1.0000   -1.7321    0.0000 C   0  0  2  0  0  0  0  0  0  0  0  0
   -0.5000   -2.5981    0.0000 H   0  0  0  0  0  0  0  0  0  0  0  0
   -1.8660   -2.2321    0.0000 C   0  0  0  0  0  0  0  0  0  0  0  0
   -1.8660   -3.2321    0.0000 S   0  0  0  0  0  0  0  0  0  0  0  0
   -1.5000   -0.8660    0.0000 C   0  0  0  0  0  0  0  0  0  0  0  0
   -2.5000   -0.8660    0.0000 O   0  0  0  0  0  0  0  0  0  0  0  0
   -1.0000   -0.0000    0.0000 O   0  0  0  0  0  0  0  0  0  0  0  0
    0.0000    0.0000    0.0000 C   0  0  0  0  0  0  0  0  0  0  0  0
  1  2  1  0  0  0  0
  2  3  2  0  0  0  0
  2  4  1  0  0  0  0
  4  5  1  0  0  0  0
  5  6  1  1  0  0  0
  5  7  1  0  0  0  0
  5  9  1  0  0  0  0
  7  8  1  0  0  0  0
  9 10  2  0  0  0  0
  9 11  1  0  0  0  0
 11 12  1  0  0  0  0
M  END
>  <Supplier>
www.ambinter.com

>  <Ambinter_reference>
Amb25385898

>  <MW>
177.221

$$$$
Amb25386230
 OpenBabel08272101412D

 12 11  0  0  1  0  0  0  0  0999 V2000
    3.2321   -0.8660    0.0000 O   0  0  0  0  0  0  0  0  0  0  0  0
    2.7321    0.0000    0.0000 C   0  0  0  0  0  0  0  0  0  0  0  0
    3.2321    0.8660    0.0000 O   0  0  0  0  0  0  0  0  0  0  0  0
    1.7321    0.0000    0.0000 C   0  0  2  0  0  0  0  0  0  0  0  0
    1.7321    1.0000    0.0000 H   0  0  0  0  0  0  0  0  0  0  0  0
    0.7321    0.0000    0.0000 C   0  0  0  0  0  0  0  0  0  0  0  0
    0.2321    0.8660    0.0000 S   0  0  0  0  0  0  0  0  0  0  0  0
    1.7321   -1.0000    0.0000 N   0  0  0  0  0  0  0  0  0  0  0  0
    0.8660   -1.5000    0.0000 C   0  0  0  0  0  0  0  0  0  0  0  0
    0.8660   -2.5000    0.0000 O   0  0  0  0  0  0  0  0  0  0  0  0
    0.0000   -1.0000    0.0000 C   0  0  0  0  0  0  0  0  0  0  0  0
   -0.0000   -0.0000    0.0000 S   0  0  0  0  0  0  0  0  0  0  0  0
  1  2  1  0  0  0  0
  2  3  2  0  0  0  0
  2  4  1  0  0  0  0
  4  5  1  6  0  0  0
  4  6  1  0  0  0  0
  4  8  1  0  0  0  0
  6  7  1  0  0  0  0
  8  9  1  0  0  0  0
  9 10  2  0  0  0  0
  9 11  1  0  0  0  0
 11 12  1  0  0  0  0
M  END
>  <Supplier>
www.ambinter.com

>  <Ambinter_reference>
Amb25386230

>  <MW>
195.26

$$$$
Amb25386285
 OpenBabel08272101412D

 12 11  0  0  1  0  0  0  0  0999 V2000
   -1.5000    0.1340    0.0000 C   0  0  0  0  0  0  0  0  0  0  0  0
   -1.5000   -0.8660    0.0000 C   0  0  2  0  0  0  0  0  0  0  0  0
   -2.5000   -0.8660    0.0000 H   0  0  0  0  0  0  0  0  0  0  0  0
   -1.5000   -1.8660    0.0000 N   0  0  0  0  0  0  0  0  0  0  0  0
   -2.3660   -2.3660    0.0000 C   0  0  0  0  0  0  0  0  0  0  0  0
   -2.3660   -3.3660    0.0000 O   0  0  0  0  0  0  0  0  0  0  0  0
   -3.2321   -1.8660    0.0000 C   0  0  0  0  0  0  0  0  0  0  0  0
   -4.0981   -2.3660    0.0000 C   0  0  0  0  0  0  0  0  0  0  0  0
   -4.9641   -1.8660    0.0000 S   0  0  0  0  0  0  0  0  0  0  0  0
   -0.5000   -0.8660    0.0000 C   0  0  0  0  0  0  0  0  0  0  0  0
   -0.0000   -1.7321    0.0000 O   0  0  0  0  0  0  0  0  0  0  0  0
    0.0000   -0.0000    0.0000 O   0  0  0  0  0  0  0  0  0  0  0  0
  1  2  1  0  0  0  0
  2  3  1  6  0  0  0
  2  4  1  0  0  0  0
  2 10  1  0  0  0  0
  4  5  1  0  0  0  0
  5  6  2  0  0  0  0
  5  7  1  0  0  0  0
  7  8  1  0  0  0  0
  8  9  1  0  0  0  0
 10 11  1  0  0  0  0
 10 12  2  0  0  0  0
M  END
>  <Supplier>
www.ambinter.com

>  <Ambinter_reference>
Amb25386285

>  <MW>
177.221

$$$$
Amb25694444
 OpenBabel08272101412D

  9  8  0  0  1  0  0  0  0  0999 V2000
    0.8660    0.5000    0.0000 C   0  0  0  0  0  0  0  0  0  0  0  0
    0.8660    1.5000    0.0000 C   0  0  0  0  0  0  0  0  0  0  0  0
    0.0000    2.0000    0.0000 N   0  0  0  0  0  0  0  0  0  0  0  0
   -0.8660    1.5000    0.0000 C   0  0  3  0  0  0  0  0  0  0  0  0
   -1.7321    2.0000    0.0000 C   0  0  0  0  0  0  0  0  0  0  0  0
   -2.5981    1.5000    0.0000 S   0  0  0  0  0  0  0  0  0  0  0  0
   -0.8660    0.5000    0.0000 C   0  0  0  0  0  0  0  0  0  0  0  0
   -1.7321    0.0000    0.0000 O   0  0  0  0  0  0  0  0  0  0  0  0
    0.0000    0.0000    0.0000 O   0  0  0  0  0  0  0  0  0  0  0  0
  1  2  1  0  0  0  0
  2  3  1  0  0  0  0
  3  4  1  0  0  0  0
  4  5  1  0  0  0  0
  4  7  1  0  0  0  0
  5  6  1  0  0  0  0
  7  8  1  0  0  0  0
  7  9  2  0  0  0  0
M  END
>  <Supplier>
www.ambinter.com

>  <Ambinter_reference>
Amb25694444

>  <MW>
149.211

$$$$
Amb25695120
 OpenBabel08272101412D

 10  9  0  0  1  0  0  0  0  0999 V2000
    3.4641    0.0000    0.0000 O   0  0  0  0  0  0  0  0  0  0  0  0
    3.4641    1.0000    0.0000 C   0  0  0  0  0  0  0  0  0  0  0  0
    4.3301    1.5000    0.0000 O   0  0  0  0  0  0  0  0  0  0  0  0
    2.5981    1.5000    0.0000 C   0  0  3  0  0  0  0  0  0  0  0  0
    2.5981    2.5000    0.0000 C   0  0  0  0  0  0  0  0  0  0  0  0
    3.4641    3.0000    0.0000 S   0  0  0  0  0  0  0  0  0  0  0  0
    1.7321    1.0000    0.0000 N   0  0  0  0  0  0  0  0  0  0  0  0
    1.7321    0.0000    0.0000 C   0  0  0  0  0  0  0  0  0  0  0  0
    0.8660   -0.5000    0.0000 C   0  0  0  0  0  0  0  0  0  0  0  0
    0.0000    0.0000    0.0000 Cl  0  0  0  0  0  0  0  0  0  0  0  0
  1  2  1  0  0  0  0
  2  3  2  0  0  0  0
  2  4  1  0  0  0  0
  4  5  1  0  0  0  0
  4  7  1  0  0  0  0
  5  6  1  0  0  0  0
  7  8  1  0  0  0  0
  8  9  1  0  0  0  0
  9 10  1  0  0  0  0
M  END
>  <Supplier>
www.ambinter.com

>  <Ambinter_reference>
Amb25695120

>  <MW>
183.656

$$$$
Amb25801938
 OpenBabel08272101412D

 10  9  0  0  1  0  0  0  0  0999 V2000
    1.6340   -0.6340    0.0000 C   0  0  0  0  0  0  0  0  0  0  0  0
    0.6340   -0.6340    0.0000 C   0  0  0  0  0  0  0  0  0  0  0  0
    0.1340   -1.5000    0.0000 N   0  0  0  0  0  0  0  0  0  0  0  0
   -0.8660   -1.5000    0.0000 C   0  0  1  0  0  0  0  0  0  0  0  0
   -0.8660   -2.5000    0.0000 H   0  0  0  0  0  0  0  0  0  0  0  0
   -1.8660   -1.5000    0.0000 C   0  0  0  0  0  0  0  0  0  0  0  0
   -2.3660   -2.3660    0.0000 S   0  0  0  0  0  0  0  0  0  0  0  0
   -0.8660   -0.5000    0.0000 C   0  0  0  0  0  0  0  0  0  0  0  0
   -1.7321   -0.0000    0.0000 O   0  0  0  0  0  0  0  0  0  0  0  0
   -0.0000   -0.0000    0.0000 O   0  0  0  0  0  0  0  0  0  0  0  0
  1  2  1  0  0  0  0
  2  3  1  0  0  0  0
  3  4  1  0  0  0  0
  4  5  1  6  0  0  0
  4  6  1  0  0  0  0
  4  8  1  0  0  0  0
  6  7  1  0  0  0  0
  8  9  1  0  0  0  0
  8 10  2  0  0  0  0
M  END
>  <Supplier>
www.ambinter.com

>  <Ambinter_reference>
Amb25801938

>  <MW>
149.211

$$$$
Amb25851404
 OpenBabel08272101412D

 11 10  0  0  1  0  0  0  0  0999 V2000
    1.7321   -2.7321    0.0000 C   0  0  0  0  0  0  0  0  0  0  0  0
    1.7321   -1.7321    0.0000 C   0  0  0  0  0  0  0  0  0  0  0  0
    2.5981   -1.2321    0.0000 C   0  0  0  0  0  0  0  0  0  0  0  0
    0.8660   -1.2321    0.0000 N   0  0  0  0  0  0  0  0  0  0  0  0
    0.0000   -1.7321    0.0000 C   0  0  2  0  0  0  0  0  0  0  0  0
    0.5000   -2.5981    0.0000 H   0  0  0  0  0  0  0  0  0  0  0  0
   -0.8660   -2.2321    0.0000 C   0  0  0  0  0  0  0  0  0  0  0  0
   -0.8660   -3.2321    0.0000 S   0  0  0  0  0  0  0  0  0  0  0  0
   -0.5000   -0.8660    0.0000 C   0  0  0  0  0  0  0  0  0  0  0  0
   -1.5000   -0.8660    0.0000 O   0  0  0  0  0  0  0  0  0  0  0  0
    0.0000    0.0000    0.0000 O   0  0  0  0  0  0  0  0  0  0  0  0
  1  2  1  0  0  0  0
  2  3  1  0  0  0  0
  2  4  1  0  0  0  0
  4  5  1  0  0  0  0
  5  6  1  1  0  0  0
  5  7  1  0  0  0  0
  5  9  1  0  0  0  0
  7  8  1  0  0  0  0
  9 10  1  0  0  0  0
  9 11  2  0  0  0  0
M  END
>  <Supplier>
www.ambinter.com

>  <Ambinter_reference>
Amb25851404

>  <MW>
163.238

$$$$
Amb25951627
 OpenBabel08272101412D

 11  9  0  0  1  0  0  0  0  0999 V2000
   -0.6681    0.1291    0.0000 Cl  0  5  0  0  0  0  0  0  0  0  0  0
    3.0000   -3.2321    0.0000 C   0  0  0  0  0  0  0  0  0  0  0  0
    3.0000   -2.2321    0.0000 N   0  3  0  0  0  0  0  0  0  0  0  0
    4.0000   -2.2321    0.0000 C   0  0  0  0  0  0  0  0  0  0  0  0
    3.0000   -1.2321    0.0000 C   0  0  0  0  0  0  0  0  0  0  0  0
    2.0000   -2.2321    0.0000 C   0  0  3  0  0  0  0  0  0  0  0  0
    1.5000   -1.3660    0.0000 C   0  0  0  0  0  0  0  0  0  0  0  0
    2.0000   -0.5000    0.0000 S   0  0  0  0  0  0  0  0  0  0  0  0
    1.5000   -3.0981    0.0000 C   0  0  0  0  0  0  0  0  0  0  0  0
    0.5000   -3.0981    0.0000 O   0  0  0  0  0  0  0  0  0  0  0  0
    2.0000   -3.9641    0.0000 O   0  0  0  0  0  0  0  0  0  0  0  0
  2  3  1  0  0  0  0
  3  4  1  0  0  0  0
  3  5  1  0  0  0  0
  3  6  1  0  0  0  0
  6  7  1  0  0  0  0
  6  9  1  0  0  0  0
  7  8  1  0  0  0  0
  9 10  1  0  0  0  0
  9 11  2  0  0  0  0
M  CHG  2   1  -1   3   1
M  END
>  <Supplier>
www.ambinter.com

>  <Ambinter_reference>
Amb25951627

>  <MW>
199.699

$$$$
Amb25962739
 OpenBabel08272101412D

 10  9  0  0  1  0  0  0  0  0999 V2000
    3.4641    0.0000    0.0000 C   0  0  0  0  0  0  0  0  0  0  0  0
    3.4641    1.0000    0.0000 C   0  0  0  0  0  0  0  0  0  0  0  0
    2.5981    1.5000    0.0000 C   0  0  0  0  0  0  0  0  0  0  0  0
    1.7321    1.0000    0.0000 N   0  0  0  0  0  0  0  0  0  0  0  0
    0.8660    1.5000    0.0000 C   0  0  3  0  0  0  0  0  0  0  0  0
    0.8660    2.5000    0.0000 C   0  0  0  0  0  0  0  0  0  0  0  0
   -0.0000    3.0000    0.0000 S   0  0  0  0  0  0  0  0  0  0  0  0
   -0.0000    1.0000    0.0000 C   0  0  0  0  0  0  0  0  0  0  0  0
   -0.8660    1.5000    0.0000 O   0  0  0  0  0  0  0  0  0  0  0  0
   -0.0000   -0.0000    0.0000 O   0  0  0  0  0  0  0  0  0  0  0  0
  1  2  1  0  0  0  0
  2  3  1  0  0  0  0
  3  4  1  0  0  0  0
  4  5  1  0  0  0  0
  5  6  1  0  0  0  0
  5  8  1  0  0  0  0
  6  7  1  0  0  0  0
  8  9  1  0  0  0  0
  8 10  2  0  0  0  0
M  END
>  <Supplier>
www.ambinter.com

>  <Ambinter_reference>
Amb25962739

>  <MW>
163.238

$$$$
Amb26013366
 OpenBabel08272101412D

 11 10  0  0  1  0  0  0  0  0999 V2000
   -2.1340   -1.5000    0.0000 C   0  0  0  0  0  0  0  0  0  0  0  0
   -1.6340   -2.3660    0.0000 C   0  0  0  0  0  0  0  0  0  0  0  0
   -0.6340   -2.3660    0.0000 C   0  0  0  0  0  0  0  0  0  0  0  0
   -0.1340   -1.5000    0.0000 N   0  0  0  0  0  0  0  0  0  0  0  0
    0.8660   -1.5000    0.0000 C   0  0  1  0  0  0  0  0  0  0  0  0
    0.8660   -2.5000    0.0000 H   0  0  0  0  0  0  0  0  0  0  0  0
    1.8660   -1.5000    0.0000 C   0  0  0  0  0  0  0  0  0  0  0  0
    2.3660   -0.6340    0.0000 S   0  0  0  0  0  0  0  0  0  0  0  0
    0.8660   -0.5000    0.0000 C   0  0  0  0  0  0  0  0  0  0  0  0
    1.7321    0.0000    0.0000 O   0  0  0  0  0  0  0  0  0  0  0  0
    0.0000   -0.0000    0.0000 O   0  0  0  0  0  0  0  0  0  0  0  0
  1  2  2  0  0  0  0
  2  3  1  0  0  0  0
  3  4  1  0  0  0  0
  4  5  1  0  0  0  0
  5  6  1  1  0  0  0
  5  7  1  0  0  0  0
  5  9  1  0  0  0  0
  7  8  1  0  0  0  0
  9 10  1  0  0  0  0
  9 11  2  0  0  0  0
M  END
>  <Supplier>
www.ambinter.com

>  <Ambinter_reference>
Amb26013366

>  <MW>
161.222

$$$$
Amb26019030
 OpenBabel08272101412D

  8  7  0  0  1  0  0  0  0  0999 V2000
    0.8660    1.5000    0.0000 C   0  0  0  0  0  0  0  0  0  0  0  0
   -0.0000    2.0000    0.0000 N   0  0  0  0  0  0  0  0  0  0  0  0
   -0.8660    1.5000    0.0000 C   0  0  3  0  0  0  0  0  0  0  0  0
   -1.7321    2.0000    0.0000 C   0  0  0  0  0  0  0  0  0  0  0  0
   -2.5981    1.5000    0.0000 S   0  0  0  0  0  0  0  0  0  0  0  0
   -0.8660    0.5000    0.0000 C   0  0  0  0  0  0  0  0  0  0  0  0
   -1.7321   -0.0000    0.0000 O   0  0  0  0  0  0  0  0  0  0  0  0
   -0.0000   -0.0000    0.0000 O   0  0  0  0  0  0  0  0  0  0  0  0
  1  2  1  0  0  0  0
  2  3  1  0  0  0  0
  3  4  1  0  0  0  0
  3  6  1  0  0  0  0
  4  5  1  0  0  0  0
  6  7  1  0  0  0  0
  6  8  2  0  0  0  0
M  END
>  <Supplier>
www.ambinter.com

>  <Ambinter_reference>
Amb26019030

>  <MW>
135.185

$$$$
Amb26044968
 OpenBabel08272101412D

  9  8  0  0  1  0  0  0  0  0999 V2000
    1.7321    0.0000    0.0000 C   0  0  0  0  0  0  0  0  0  0  0  0
    1.7321    1.0000    0.0000 N   0  0  0  0  0  0  0  0  0  0  0  0
    2.5981    1.5000    0.0000 C   0  0  0  0  0  0  0  0  0  0  0  0
    0.8660    1.5000    0.0000 C   0  0  3  0  0  0  0  0  0  0  0  0
    0.8660    2.5000    0.0000 C   0  0  0  0  0  0  0  0  0  0  0  0
    1.7321    3.0000    0.0000 S   0  0  0  0  0  0  0  0  0  0  0  0
   -0.0000    1.0000    0.0000 C   0  0  0  0  0  0  0  0  0  0  0  0
   -0.8660    1.5000    0.0000 O   0  0  0  0  0  0  0  0  0  0  0  0
    0.0000    0.0000    0.0000 O   0  0  0  0  0  0  0  0  0  0  0  0
  1  2  1  0  0  0  0
  2  3  1  0  0  0  0
  2  4  1  0  0  0  0
  4  5  1  0  0  0  0
  4  7  1  0  0  0  0
  5  6  1  0  0  0  0
  7  8  1  0  0  0  0
  7  9  2  0  0  0  0
M  END
>  <Supplier>
www.ambinter.com

>  <Ambinter_reference>
Amb26044968

>  <MW>
149.211

$$$$
Amb26071807
 OpenBabel08272101412D

 10  9  0  0  1  0  0  0  0  0999 V2000
    1.7321   -1.0000    0.0000 C   0  0  0  0  0  0  0  0  0  0  0  0
    1.7321    0.0000    0.0000 C   0  0  3  0  0  0  0  0  0  0  0  0
    2.5981    0.5000    0.0000 N   0  0  0  0  0  0  0  0  0  0  0  0
    2.5981    1.5000    0.0000 C   0  0  0  0  0  0  0  0  0  0  0  0
    3.4641    2.0000    0.0000 O   0  0  0  0  0  0  0  0  0  0  0  0
    1.7321    2.0000    0.0000 C   0  0  0  0  0  0  0  0  0  0  0  0
    1.7321    3.0000    0.0000 S   0  0  0  0  0  0  0  0  0  0  0  0
    0.8660    0.5000    0.0000 C   0  0  0  0  0  0  0  0  0  0  0  0
    0.8660    1.5000    0.0000 O   0  0  0  0  0  0  0  0  0  0  0  0
    0.0000    0.0000    0.0000 O   0  0  0  0  0  0  0  0  0  0  0  0
  1  2  1  0  0  0  0
  2  3  1  0  0  0  0
  2  8  1  0  0  0  0
  3  4  1  0  0  0  0
  4  5  2  0  0  0  0
  4  6  1  0  0  0  0
  6  7  1  0  0  0  0
  8  9  1  0  0  0  0
  8 10  2  0  0  0  0
M  END
>  <Supplier>
www.ambinter.com

>  <Ambinter_reference>
Amb26071807

>  <MW>
163.195

$$$$
Amb26081503
 OpenBabel08272101412D

 11 10  0  0  1  0  0  0  0  0999 V2000
    0.8660   -2.5000    0.0000 C   0  0  0  0  0  0  0  0  0  0  0  0
    0.8660   -1.5000    0.0000 C   0  0  0  0  0  0  0  0  0  0  0  0
    0.3660   -0.6340    0.0000 C   0  0  0  0  0  0  0  0  0  0  0  0
   -0.1340   -1.5000    0.0000 C   0  0  0  0  0  0  0  0  0  0  0  0
    1.7321   -1.0000    0.0000 N   0  0  0  0  0  0  0  0  0  0  0  0
    1.7321   -0.0000    0.0000 C   0  0  3  0  0  0  0  0  0  0  0  0
    2.5981    0.5000    0.0000 C   0  0  0  0  0  0  0  0  0  0  0  0
    3.4641   -0.0000    0.0000 S   0  0  0  0  0  0  0  0  0  0  0  0
    0.8660    0.5000    0.0000 C   0  0  0  0  0  0  0  0  0  0  0  0
    0.8660    1.5000    0.0000 O   0  0  0  0  0  0  0  0  0  0  0  0
    0.0000    0.0000    0.0000 O   0  0  0  0  0  0  0  0  0  0  0  0
  1  2  1  0  0  0  0
  2  3  1  0  0  0  0
  2  4  1  0  0  0  0
  2  5  1  0  0  0  0
  5  6  1  0  0  0  0
  6  7  1  0  0  0  0
  6  9  1  0  0  0  0
  7  8  1  0  0  0  0
  9 10  1  0  0  0  0
  9 11  2  0  0  0  0
M  END
>  <Supplier>
www.ambinter.com

>  <Ambinter_reference>
Amb26081503

>  <MW>
177.265

$$$$
Amb26081613
 OpenBabel08272101412D

 11 10  0  0  1  0  0  0  0  0999 V2000
   -1.7321    0.0000    0.0000 O   0  0  0  0  0  0  0  0  0  0  0  0
   -2.5981   -0.5000    0.0000 C   0  0  0  0  0  0  0  0  0  0  0  0
   -3.4641    0.0000    0.0000 O   0  0  0  0  0  0  0  0  0  0  0  0
   -2.5981   -1.5000    0.0000 C   0  0  3  0  0  0  0  0  0  0  0  0
   -3.4641   -2.0000    0.0000 C   0  0  0  0  0  0  0  0  0  0  0  0
   -4.3301   -1.5000    0.0000 S   0  0  0  0  0  0  0  0  0  0  0  0
   -1.7321   -2.0000    0.0000 N   0  0  0  0  0  0  0  0  0  0  0  0
   -0.8660   -1.5000    0.0000 C   0  0  0  0  0  0  0  0  0  0  0  0
   -0.0000   -2.0000    0.0000 O   0  0  0  0  0  0  0  0  0  0  0  0
   -0.8660   -0.5000    0.0000 C   0  0  0  0  0  0  0  0  0  0  0  0
    0.0000   -0.0000    0.0000 Cl  0  0  0  0  0  0  0  0  0  0  0  0
  1  2  1  0  0  0  0
  2  3  2  0  0  0  0
  2  4  1  0  0  0  0
  4  5  1  0  0  0  0
  4  7  1  0  0  0  0
  5  6  1  0  0  0  0
  7  8  1  0  0  0  0
  8  9  2  0  0  0  0
  8 10  1  0  0  0  0
 10 11  1  0  0  0  0
M  END
>  <Supplier>
www.ambinter.com

>  <Ambinter_reference>
Amb26081613

>  <MW>
197.64

$$$$
Amb26081636
 OpenBabel08272101412D

 11 10  0  0  1  0  0  0  0  0999 V2000
    0.8660    0.5000    0.0000 C   0  0  0  0  0  0  0  0  0  0  0  0
    0.8660    1.5000    0.0000 C   0  0  0  0  0  0  0  0  0  0  0  0
    1.7321    2.0000    0.0000 O   0  0  0  0  0  0  0  0  0  0  0  0
   -0.0000    2.0000    0.0000 N   0  0  0  0  0  0  0  0  0  0  0  0
   -0.0000    3.0000    0.0000 C   0  0  0  0  0  0  0  0  0  0  0  0
   -0.8660    1.5000    0.0000 C   0  0  3  0  0  0  0  0  0  0  0  0
   -1.7321    2.0000    0.0000 C   0  0  0  0  0  0  0  0  0  0  0  0
   -2.5981    1.5000    0.0000 S   0  0  0  0  0  0  0  0  0  0  0  0
   -0.8660    0.5000    0.0000 C   0  0  0  0  0  0  0  0  0  0  0  0
   -1.7321   -0.0000    0.0000 O   0  0  0  0  0  0  0  0  0  0  0  0
   -0.0000   -0.0000    0.0000 O   0  0  0  0  0  0  0  0  0  0  0  0
  1  2  1  0  0  0  0
  2  3  2  0  0  0  0
  2  4  1  0  0  0  0
  4  5  1  0  0  0  0
  4  6  1  0  0  0  0
  6  7  1  0  0  0  0
  6  9  1  0  0  0  0
  7  8  1  0  0  0  0
  9 10  1  0  0  0  0
  9 11  2  0  0  0  0
M  END
>  <Supplier>
www.ambinter.com

>  <Ambinter_reference>
Amb26081636

>  <MW>
177.221

$$$$
Amb26083081
 OpenBabel08272101412D

 11 10  0  0  1  0  0  0  0  0999 V2000
   -1.7321    0.0000    0.0000 O   0  0  0  0  0  0  0  0  0  0  0  0
   -2.5981   -0.5000    0.0000 C   0  0  0  0  0  0  0  0  0  0  0  0
   -3.4641    0.0000    0.0000 O   0  0  0  0  0  0  0  0  0  0  0  0
   -2.5981   -1.5000    0.0000 C   0  0  3  0  0  0  0  0  0  0  0  0
   -3.4641   -2.0000    0.0000 C   0  0  0  0  0  0  0  0  0  0  0  0
   -4.3301   -1.5000    0.0000 O   0  0  0  0  0  0  0  0  0  0  0  0
   -1.7321   -2.0000    0.0000 N   0  0  0  0  0  0  0  0  0  0  0  0
   -0.8660   -1.5000    0.0000 C   0  0  0  0  0  0  0  0  0  0  0  0
   -0.0000   -2.0000    0.0000 O   0  0  0  0  0  0  0  0  0  0  0  0
   -0.8660   -0.5000    0.0000 C   0  0  0  0  0  0  0  0  0  0  0  0
    0.0000   -0.0000    0.0000 S   0  0  0  0  0  0  0  0  0  0  0  0
  1  2  1  0  0  0  0
  2  3  2  0  0  0  0
  2  4  1  0  0  0  0
  4  5  1  0  0  0  0
  4  7  1  0  0  0  0
  5  6  1  0  0  0  0
  7  8  1  0  0  0  0
  8  9  2  0  0  0  0
  8 10  1  0  0  0  0
 10 11  1  0  0  0  0
M  END
>  <Supplier>
www.ambinter.com

>  <Ambinter_reference>
Amb26083081

>  <MW>
179.194

$$$$
Amb26084143
 OpenBabel08272101412D

 12 11  0  0  1  0  0  0  0  0999 V2000
    0.1340   -3.2321    0.0000 C   0  0  0  0  0  0  0  0  0  0  0  0
    0.6340   -2.3660    0.0000 C   0  0  0  0  0  0  0  0  0  0  0  0
    1.6340   -2.3660    0.0000 O   0  0  0  0  0  0  0  0  0  0  0  0
    0.1340   -1.5000    0.0000 N   0  0  0  0  0  0  0  0  0  0  0  0
   -0.8660   -1.5000    0.0000 C   0  0  1  0  0  0  0  0  0  0  0  0
   -0.8660   -2.5000    0.0000 H   0  0  0  0  0  0  0  0  0  0  0  0
   -1.8660   -1.5000    0.0000 C   0  0  0  0  0  0  0  0  0  0  0  0
   -2.3660   -2.3660    0.0000 S   0  0  0  0  0  0  0  0  0  0  0  0
   -3.3660   -2.3660    0.0000 Cl  0  0  0  0  0  0  0  0  0  0  0  0
   -0.8660   -0.5000    0.0000 C   0  0  0  0  0  0  0  0  0  0  0  0
   -1.7321    0.0000    0.0000 O   0  0  0  0  0  0  0  0  0  0  0  0
    0.0000    0.0000    0.0000 O   0  0  0  0  0  0  0  0  0  0  0  0
  1  2  1  0  0  0  0
  2  3  2  0  0  0  0
  2  4  1  0  0  0  0
  4  5  1  0  0  0  0
  5  6  1  6  0  0  0
  5  7  1  0  0  0  0
  5 10  1  0  0  0  0
  7  8  1  0  0  0  0
  8  9  1  0  0  0  0
 10 11  1  0  0  0  0
 10 12  2  0  0  0  0
M  END
>  <Supplier>
www.ambinter.com

>  <Ambinter_reference>
Amb26084143

>  <MW>
197.64

$$$$
Amb26348286
 OpenBabel08272101412D

 14 13  0  0  1  0  0  0  0  0999 V2000
    1.6340    0.6340    0.0000 C   0  0  0  0  0  0  0  0  0  0  0  0
    2.1340    1.5000    0.0000 C   0  0  0  0  0  0  0  0  0  0  0  0
    3.1340    1.5000    0.0000 O   0  0  0  0  0  0  0  0  0  0  0  0
    1.6340    2.3660    0.0000 N   0  0  0  0  0  0  0  0  0  0  0  0
    0.6340    2.3660    0.0000 C   0  0  0  0  0  0  0  0  0  0  0  0
    0.1340    3.2321    0.0000 O   0  0  0  0  0  0  0  0  0  0  0  0
    0.1340    1.5000    0.0000 N   0  0  0  0  0  0  0  0  0  0  0  0
   -0.8660    1.5000    0.0000 C   0  0  1  0  0  0  0  0  0  0  0  0
   -0.8660    2.5000    0.0000 H   0  0  0  0  0  0  0  0  0  0  0  0
   -1.8660    1.5000    0.0000 C   0  0  0  0  0  0  0  0  0  0  0  0
   -2.3660    2.3660    0.0000 S   0  0  0  0  0  0  0  0  0  0  0  0
   -0.8660    0.5000    0.0000 C   0  0  0  0  0  0  0  0  0  0  0  0
   -1.7321    0.0000    0.0000 O   0  0  0  0  0  0  0  0  0  0  0  0
    0.0000    0.0000    0.0000 O   0  0  0  0  0  0  0  0  0  0  0  0
  1  2  1  0  0  0  0
  2  3  2  0  0  0  0
  2  4  1  0  0  0  0
  4  5  1  0  0  0  0
  5  6  2  0  0  0  0
  5  7  1  0  0  0  0
  7  8  1  0  0  0  0
  8  9  1  1  0  0  0
  8 10  1  0  0  0  0
  8 12  1  0  0  0  0
 10 11  1  0  0  0  0
 12 13  1  0  0  0  0
 12 14  2  0  0  0  0
M  END
>  <Supplier>
www.ambinter.com

>  <Ambinter_reference>
Amb26348286

>  <MW>
206.22

$$$$
Amb26417893
 OpenBabel08272101412D

 11 11  0  0  0  0  0  0  0  0999 V2000
    2.0000   -1.7321    0.0000 C   0  0  0  0  0  0  0  0  0  0  0  0
    2.5000   -0.8660    0.0000 C   0  0  0  0  0  0  0  0  0  0  0  0
    3.5000   -0.8660    0.0000 O   0  0  0  0  0  0  0  0  0  0  0  0
    2.0000    0.0000    0.0000 N   0  0  0  0  0  0  0  0  0  0  0  0
    1.0000   -0.0000    0.0000 C   0  0  0  0  0  0  0  0  0  0  0  0
    0.0000    0.0000    0.0000 C   0  0  0  0  0  0  0  0  0  0  0  0
    0.0000   -1.0000    0.0000 S   0  0  0  0  0  0  0  0  0  0  0  0
    1.0000   -1.0000    0.0000 C   0  0  0  0  0  0  0  0  0  0  0  0
    1.0000    1.0000    0.0000 C   0  0  0  0  0  0  0  0  0  0  0  0
    0.1340    1.5000    0.0000 O   0  0  0  0  0  0  0  0  0  0  0  0
    1.8660    1.5000    0.0000 O   0  0  0  0  0  0  0  0  0  0  0  0
  1  2  1  0  0  0  0
  2  3  2  0  0  0  0
  2  4  1  0  0  0  0
  4  5  1  0  0  0  0
  5  8  1  0  0  0  0
  5  6  1  0  0  0  0
  5  9  1  0  0  0  0
  6  7  1  0  0  0  0
  7  8  1  0  0  0  0
  9 10  1  0  0  0  0
  9 11  2  0  0  0  0
M  END
>  <Supplier>
www.ambinter.com

>  <Ambinter_reference>
Amb26417893

>  <MW>
175.206

$$$$
Amb26441900
 OpenBabel08272101412D

 11 10  0  0  1  0  0  0  0  0999 V2000
    2.6340   -0.6340    0.0000 N   0  0  0  0  0  0  0  0  0  0  0  0
    1.6340   -0.6340    0.0000 C   0  0  0  0  0  0  0  0  0  0  0  0
    0.6340   -0.6340    0.0000 C   0  0  0  0  0  0  0  0  0  0  0  0
    0.1340   -1.5000    0.0000 N   0  0  0  0  0  0  0  0  0  0  0  0
   -0.8660   -1.5000    0.0000 C   0  0  1  0  0  0  0  0  0  0  0  0
   -0.8660   -2.5000    0.0000 H   0  0  0  0  0  0  0  0  0  0  0  0
   -1.8660   -1.5000    0.0000 C   0  0  0  0  0  0  0  0  0  0  0  0
   -2.3660   -2.3660    0.0000 S   0  0  0  0  0  0  0  0  0  0  0  0
   -0.8660   -0.5000    0.0000 C   0  0  0  0  0  0  0  0  0  0  0  0
   -1.7321    0.0000    0.0000 O   0  0  0  0  0  0  0  0  0  0  0  0
   -0.0000   -0.0000    0.0000 O   0  0  0  0  0  0  0  0  0  0  0  0
  1  2  3  0  0  0  0
  2  3  1  0  0  0  0
  3  4  1  0  0  0  0
  4  5  1  0  0  0  0
  5  6  1  6  0  0  0
  5  7  1  0  0  0  0
  5  9  1  0  0  0  0
  7  8  1  0  0  0  0
  9 10  1  0  0  0  0
  9 11  2  0  0  0  0
M  END
>  <Supplier>
www.ambinter.com

>  <Ambinter_reference>
Amb26441900

>  <MW>
160.194

$$$$
Amb26460955
 OpenBabel08272101412D

 13 12  0  0  1  0  0  0  0  0999 V2000
    2.5981   -0.5000    0.0000 C   0  0  0  0  0  0  0  0  0  0  0  0
    3.4641   -0.0000    0.0000 C   0  0  0  0  0  0  0  0  0  0  0  0
    4.3301   -0.5000    0.0000 O   0  0  0  0  0  0  0  0  0  0  0  0
    3.4641    1.0000    0.0000 N   0  0  0  0  0  0  0  0  0  0  0  0
    2.5981    1.5000    0.0000 C   0  0  0  0  0  0  0  0  0  0  0  0
    2.5981    2.5000    0.0000 O   0  0  0  0  0  0  0  0  0  0  0  0
    1.7321    1.0000    0.0000 N   0  0  0  0  0  0  0  0  0  0  0  0
    0.8660    1.5000    0.0000 C   0  0  3  0  0  0  0  0  0  0  0  0
    0.8660    2.5000    0.0000 C   0  0  0  0  0  0  0  0  0  0  0  0
   -0.0000    3.0000    0.0000 S   0  0  0  0  0  0  0  0  0  0  0  0
   -0.0000    1.0000    0.0000 C   0  0  0  0  0  0  0  0  0  0  0  0
   -0.8660    1.5000    0.0000 O   0  0  0  0  0  0  0  0  0  0  0  0
    0.0000    0.0000    0.0000 O   0  0  0  0  0  0  0  0  0  0  0  0
  1  2  1  0  0  0  0
  2  3  2  0  0  0  0
  2  4  1  0  0  0  0
  4  5  1  0  0  0  0
  5  6  2  0  0  0  0
  5  7  1  0  0  0  0
  7  8  1  0  0  0  0
  8  9  1  0  0  0  0
  8 11  1  0  0  0  0
  9 10  1  0  0  0  0
 11 12  1  0  0  0  0
 11 13  2  0  0  0  0
M  END
>  <Supplier>
www.ambinter.com

>  <Ambinter_reference>
Amb26460955

>  <MW>
206.22

$$$$
Amb26651635
 OpenBabel08272101412D

 12 11  0  0  1  0  0  0  0  0999 V2000
    3.2321   -0.8660    0.0000 O   0  0  0  0  0  0  0  0  0  0  0  0
    2.7321    0.0000    0.0000 C   0  0  0  0  0  0  0  0  0  0  0  0
    3.2321    0.8660    0.0000 O   0  0  0  0  0  0  0  0  0  0  0  0
    1.7321    0.0000    0.0000 C   0  0  2  0  0  0  0  0  0  0  0  0
    1.7321    1.0000    0.0000 H   0  0  0  0  0  0  0  0  0  0  0  0
    0.7321    0.0000    0.0000 C   0  0  0  0  0  0  0  0  0  0  0  0
    0.2321    0.8660    0.0000 O   0  0  0  0  0  0  0  0  0  0  0  0
    1.7321   -1.0000    0.0000 N   0  0  0  0  0  0  0  0  0  0  0  0
    0.8660   -1.5000    0.0000 C   0  0  0  0  0  0  0  0  0  0  0  0
    0.8660   -2.5000    0.0000 O   0  0  0  0  0  0  0  0  0  0  0  0
    0.0000   -1.0000    0.0000 C   0  0  0  0  0  0  0  0  0  0  0  0
   -0.0000   -0.0000    0.0000 S   0  0  0  0  0  0  0  0  0  0  0  0
  1  2  1  0  0  0  0
  2  3  2  0  0  0  0
  2  4  1  0  0  0  0
  4  5  1  6  0  0  0
  4  6  1  0  0  0  0
  4  8  1  0  0  0  0
  6  7  1  0  0  0  0
  8  9  1  0  0  0  0
  9 10  2  0  0  0  0
  9 11  1  0  0  0  0
 11 12  1  0  0  0  0
M  END
>  <Supplier>
www.ambinter.com

>  <Ambinter_reference>
Amb26651635

>  <MW>
179.194

$$$$
Amb26660629
 OpenBabel08272101412D

 12 11  0  0  1  0  0  0  0  0999 V2000
   -2.1340   -1.5000    0.0000 N   0  0  0  0  0  0  0  0  0  0  0  0
   -1.6340   -2.3660    0.0000 C   0  0  0  0  0  0  0  0  0  0  0  0
   -0.6340   -2.3660    0.0000 C   0  0  0  0  0  0  0  0  0  0  0  0
   -0.1340   -3.2321    0.0000 O   0  0  0  0  0  0  0  0  0  0  0  0
   -0.1340   -1.5000    0.0000 N   0  0  0  0  0  0  0  0  0  0  0  0
    0.8660   -1.5000    0.0000 C   0  0  1  0  0  0  0  0  0  0  0  0
    0.8660   -2.5000    0.0000 H   0  0  0  0  0  0  0  0  0  0  0  0
    1.8660   -1.5000    0.0000 C   0  0  0  0  0  0  0  0  0  0  0  0
    2.3660   -0.6340    0.0000 S   0  0  0  0  0  0  0  0  0  0  0  0
    0.8660   -0.5000    0.0000 C   0  0  0  0  0  0  0  0  0  0  0  0
    1.7321    0.0000    0.0000 O   0  0  0  0  0  0  0  0  0  0  0  0
    0.0000   -0.0000    0.0000 O   0  0  0  0  0  0  0  0  0  0  0  0
  1  2  1  0  0  0  0
  2  3  1  0  0  0  0
  3  4  2  0  0  0  0
  3  5  1  0  0  0  0
  5  6  1  0  0  0  0
  6  7  1  1  0  0  0
  6  8  1  0  0  0  0
  6 10  1  0  0  0  0
  8  9  1  0  0  0  0
 10 11  1  0  0  0  0
 10 12  2  0  0  0  0
M  END
>  <Supplier>
www.ambinter.com

>  <Ambinter_reference>
Amb26660629

>  <MW>
178.21

$$$$
Amb27617120
 OpenBabel08272101412D

 11 10  0  0  1  0  0  0  0  0999 V2000
   -2.1340   -1.5000    0.0000 O   0  0  0  0  0  0  0  0  0  0  0  0
   -1.6340   -2.3660    0.0000 C   0  0  0  0  0  0  0  0  0  0  0  0
   -0.6340   -2.3660    0.0000 C   0  0  0  0  0  0  0  0  0  0  0  0
   -0.1340   -1.5000    0.0000 N   0  0  0  0  0  0  0  0  0  0  0  0
    0.8660   -1.5000    0.0000 C   0  0  1  0  0  0  0  0  0  0  0  0
    0.8660   -2.5000    0.0000 H   0  0  0  0  0  0  0  0  0  0  0  0
    1.8660   -1.5000    0.0000 C   0  0  0  0  0  0  0  0  0  0  0  0
    2.3660   -0.6340    0.0000 S   0  0  0  0  0  0  0  0  0  0  0  0
    0.8660   -0.5000    0.0000 C   0  0  0  0  0  0  0  0  0  0  0  0
    1.7321    0.0000    0.0000 O   0  0  0  0  0  0  0  0  0  0  0  0
    0.0000   -0.0000    0.0000 O   0  0  0  0  0  0  0  0  0  0  0  0
  1  2  1  0  0  0  0
  2  3  1  0  0  0  0
  3  4  1  0  0  0  0
  4  5  1  0  0  0  0
  5  6  1  1  0  0  0
  5  7  1  0  0  0  0
  5  9  1  0  0  0  0
  7  8  1  0  0  0  0
  9 10  1  0  0  0  0
  9 11  2  0  0  0  0
M  END
>  <Supplier>
www.ambinter.com

>  <Ambinter_reference>
Amb27617120

>  <MW>
165.211

$$$$
Amb27645159
 OpenBabel08272101412D

 11 10  0  0  1  0  0  0  0  0999 V2000
   -2.1340   -1.5000    0.0000 C   0  0  0  0  0  0  0  0  0  0  0  0
   -1.6340   -2.3660    0.0000 C   0  0  0  0  0  0  0  0  0  0  0  0
   -0.6340   -2.3660    0.0000 C   0  0  0  0  0  0  0  0  0  0  0  0
   -0.1340   -1.5000    0.0000 N   0  0  0  0  0  0  0  0  0  0  0  0
    0.8660   -1.5000    0.0000 C   0  0  1  0  0  0  0  0  0  0  0  0
    0.8660   -2.5000    0.0000 H   0  0  0  0  0  0  0  0  0  0  0  0
    1.8660   -1.5000    0.0000 C   0  0  0  0  0  0  0  0  0  0  0  0
    2.3660   -0.6340    0.0000 S   0  0  0  0  0  0  0  0  0  0  0  0
    0.8660   -0.5000    0.0000 C   0  0  0  0  0  0  0  0  0  0  0  0
    1.7321    0.0000    0.0000 O   0  0  0  0  0  0  0  0  0  0  0  0
    0.0000   -0.0000    0.0000 O   0  0  0  0  0  0  0  0  0  0  0  0
  1  2  1  0  0  0  0
  2  3  1  0  0  0  0
  3  4  1  0  0  0  0
  4  5  1  0  0  0  0
  5  6  1  1  0  0  0
  5  7  1  0  0  0  0
  5  9  1  0  0  0  0
  7  8  1  0  0  0  0
  9 10  1  0  0  0  0
  9 11  2  0  0  0  0
M  END
>  <Supplier>
www.ambinter.com

>  <Ambinter_reference>
Amb27645159

>  <MW>
163.238

$$$$
Amb31295177
 OpenBabel08272101412D

 11 10  0  0  1  0  0  0  0  0999 V2000
    2.0000   -2.0000    0.0000 C   0  0  0  0  0  0  0  0  0  0  0  0
    2.8660   -1.5000    0.0000 O   0  0  0  0  0  0  0  0  0  0  0  0
    2.8660   -0.5000    0.0000 C   0  0  0  0  0  0  0  0  0  0  0  0
    3.7321   -0.0000    0.0000 O   0  0  0  0  0  0  0  0  0  0  0  0
    2.0000   -0.0000    0.0000 C   0  0  1  0  0  0  0  0  0  0  0  0
    2.5000    0.8660    0.0000 H   0  0  0  0  0  0  0  0  0  0  0  0
    1.1340    0.5000    0.0000 C   0  0  0  0  0  0  0  0  0  0  0  0
    1.1340    1.5000    0.0000 S   0  0  0  0  0  0  0  0  0  0  0  0
    1.5000   -0.8660    0.0000 N   0  0  0  0  0  0  0  0  0  0  0  0
    0.5000   -0.8660    0.0000 C   0  0  0  0  0  0  0  0  0  0  0  0
    0.0000    0.0000    0.0000 O   0  0  0  0  0  0  0  0  0  0  0  0
  1  2  1  0  0  0  0
  2  3  1  0  0  0  0
  3  4  2  0  0  0  0
  3  5  1  0  0  0  0
  5  6  1  1  0  0  0
  5  7  1  0  0  0  0
  5  9  1  0  0  0  0
  7  8  1  0  0  0  0
  9 10  1  0  0  0  0
 10 11  2  0  0  0  0
M  END
>  <Supplier>
www.ambinter.com

>  <Ambinter_reference>
Amb31295177

>  <MW>
163.195

$$$$
Amb31295817
 OpenBabel08272101412D

 11 10  0  0  1  0  0  0  0  0999 V2000
    1.7321   -2.7321    0.0000 C   0  0  0  0  0  0  0  0  0  0  0  0
    1.7321   -1.7321    0.0000 C   0  0  0  0  0  0  0  0  0  0  0  0
    2.5981   -1.2321    0.0000 O   0  0  0  0  0  0  0  0  0  0  0  0
    0.8660   -1.2321    0.0000 N   0  0  0  0  0  0  0  0  0  0  0  0
    0.0000   -1.7321    0.0000 C   0  0  1  0  0  0  0  0  0  0  0  0
    0.5000   -2.5981    0.0000 C   0  0  0  0  0  0  0  0  0  0  0  0
   -0.8660   -2.2321    0.0000 C   0  0  0  0  0  0  0  0  0  0  0  0
   -0.8660   -3.2321    0.0000 S   0  0  0  0  0  0  0  0  0  0  0  0
   -0.5000   -0.8660    0.0000 C   0  0  0  0  0  0  0  0  0  0  0  0
   -1.5000   -0.8660    0.0000 O   0  0  0  0  0  0  0  0  0  0  0  0
    0.0000    0.0000    0.0000 O   0  0  0  0  0  0  0  0  0  0  0  0
  1  2  1  0  0  0  0
  2  3  2  0  0  0  0
  2  4  1  0  0  0  0
  5  4  1  1  0  0  0
  5  6  1  0  0  0  0
  5  7  1  0  0  0  0
  5  9  1  0  0  0  0
  7  8  1  0  0  0  0
  9 10  1  0  0  0  0
  9 11  2  0  0  0  0
M  END
>  <Supplier>
www.ambinter.com

>  <Ambinter_reference>
Amb31295817

>  <MW>
177.221

$$$$
Amb33836095
 OpenBabel08272101412D

 15 14  0  0  1  0  0  0  0  0999 V2000
   -0.1340    3.2321    0.0000 C   0  0  0  0  0  0  0  0  0  0  0  0
   -0.6340    2.3660    0.0000 C   0  0  0  0  0  0  0  0  0  0  0  0
   -1.6340    2.3660    0.0000 O   0  0  0  0  0  0  0  0  0  0  0  0
   -0.1340    1.5000    0.0000 N   0  0  0  0  0  0  0  0  0  0  0  0
    0.8660    1.5000    0.0000 C   0  0  1  0  0  0  0  0  0  0  0  0
    0.8660    2.5000    0.0000 H   0  0  0  0  0  0  0  0  0  0  0  0
    1.8660    1.5000    0.0000 C   0  0  0  0  0  0  0  0  0  0  0  0
    2.3660    2.3660    0.0000 S   0  0  0  0  0  0  0  0  0  0  0  0
    3.3660    2.3660    0.0000 C   0  0  0  0  0  0  0  0  0  0  0  0
    3.8660    3.2321    0.0000 C   0  0  0  0  0  0  0  0  0  0  0  0
    4.8660    3.2321    0.0000 C   0  0  0  0  0  0  0  0  0  0  0  0
    5.3660    4.0981    0.0000 O   0  0  0  0  0  0  0  0  0  0  0  0
    0.8660    0.5000    0.0000 C   0  0  0  0  0  0  0  0  0  0  0  0
    1.7321    0.0000    0.0000 O   0  0  0  0  0  0  0  0  0  0  0  0
    0.0000   -0.0000    0.0000 O   0  0  0  0  0  0  0  0  0  0  0  0
  1  2  1  0  0  0  0
  2  3  2  0  0  0  0
  2  4  1  0  0  0  0
  4  5  1  0  0  0  0
  5  6  1  6  0  0  0
  5  7  1  0  0  0  0
  5 13  1  0  0  0  0
  7  8  1  0  0  0  0
  8  9  1  0  0  0  0
  9 10  1  0  0  0  0
 10 11  1  0  0  0  0
 11 12  2  0  0  0  0
 13 14  1  0  0  0  0
 13 15  2  0  0  0  0
M  END
>  <Supplier>
www.ambinter.com

>  <Ambinter_reference>
Amb33836095

>  <MW>
219.258

$$$$
Amb33838487
 OpenBabel08272101412D

 13 12  0  0  1  0  0  0  0  0999 V2000
   -4.0981    0.6340    0.0000 O   0  0  0  0  0  0  0  0  0  0  0  0
   -3.2321    0.1340    0.0000 C   0  0  0  0  0  0  0  0  0  0  0  0
   -3.2321   -0.8660    0.0000 O   0  0  0  0  0  0  0  0  0  0  0  0
   -2.3660    0.6340    0.0000 C   0  0  0  0  0  0  0  0  0  0  0  0
   -2.3660    1.6340    0.0000 O   0  0  0  0  0  0  0  0  0  0  0  0
   -1.5000    0.1340    0.0000 N   0  0  0  0  0  0  0  0  0  0  0  0
   -1.5000   -0.8660    0.0000 C   0  0  1  0  0  0  0  0  0  0  0  0
   -2.5000   -0.8660    0.0000 H   0  0  0  0  0  0  0  0  0  0  0  0
   -1.5000   -1.8660    0.0000 C   0  0  0  0  0  0  0  0  0  0  0  0
   -2.3660   -2.3660    0.0000 S   0  0  0  0  0  0  0  0  0  0  0  0
   -0.5000   -0.8660    0.0000 C   0  0  0  0  0  0  0  0  0  0  0  0
    0.0000   -1.7321    0.0000 O   0  0  0  0  0  0  0  0  0  0  0  0
    0.0000   -0.0000    0.0000 O   0  0  0  0  0  0  0  0  0  0  0  0
  1  2  1  0  0  0  0
  2  3  2  0  0  0  0
  2  4  1  0  0  0  0
  4  5  2  0  0  0  0
  4  6  1  0  0  0  0
  6  7  1  0  0  0  0
  7  8  1  1  0  0  0
  7  9  1  0  0  0  0
  7 11  1  0  0  0  0
  9 10  1  0  0  0  0
 11 12  1  0  0  0  0
 11 13  2  0  0  0  0
M  END
>  <Supplier>
www.ambinter.com

>  <Ambinter_reference>
Amb33838487

>  <MW>
193.178

$$$$
Amb33839414
 OpenBabel08272101412D

 19 18  0  0  1  0  0  0  0  0999 V2000
    3.4641    1.7321    0.0000 H   0  0  0  0  0  0  0  0  0  0  0  0
    2.5981    1.2321    0.0000 C   0  0  0  0  0  0  0  0  0  0  0  0
    2.0981    0.3660    0.0000 H   0  0  0  0  0  0  0  0  0  0  0  0
    3.0981    0.3660    0.0000 H   0  0  0  0  0  0  0  0  0  0  0  0
    1.7321    1.7321    0.0000 C   0  0  0  0  0  0  0  0  0  0  0  0
    1.7321    2.7321    0.0000 O   0  0  0  0  0  0  0  0  0  0  0  0
    0.8660    1.2321    0.0000 N   0  0  0  0  0  0  0  0  0  0  0  0
   -0.0000    1.7321    0.0000 C   0  0  1  0  0  0  0  0  0  0  0  0
    0.5000    2.5981    0.0000 H   0  0  0  0  0  0  0  0  0  0  0  0
   -0.8660    2.2321    0.0000 C   0  0  0  0  0  0  0  0  0  0  0  0
   -1.7321    1.7321    0.0000 S   0  0  0  0  0  0  0  0  0  0  0  0
   -2.5981    2.2321    0.0000 C   0  0  0  0  0  0  0  0  0  0  0  0
   -3.4641    1.7321    0.0000 C   0  0  0  0  0  0  0  0  0  0  0  0
   -4.3301    2.2321    0.0000 C   0  0  0  0  0  0  0  0  0  0  0  0
   -4.3301    3.2321    0.0000 O   0  0  0  0  0  0  0  0  0  0  0  0
   -5.1962    1.7321    0.0000 O   0  0  0  0  0  0  0  0  0  0  0  0
   -0.5000    0.8660    0.0000 C   0  0  0  0  0  0  0  0  0  0  0  0
   -1.5000    0.8660    0.0000 O   0  0  0  0  0  0  0  0  0  0  0  0
    0.0000   -0.0000    0.0000 O   0  0  0  0  0  0  0  0  0  0  0  0
  1  2  1  0  0  0  0
  2  3  1  0  0  0  0
  2  4  1  0  0  0  0
  2  5  1  0  0  0  0
  5  6  2  0  0  0  0
  5  7  1  0  0  0  0
  7  8  1  0  0  0  0
  8  9  1  1  0  0  0
  8 10  1  0  0  0  0
  8 17  1  0  0  0  0
 10 11  1  0  0  0  0
 11 12  1  0  0  0  0
 12 13  1  0  0  0  0
 13 14  1  0  0  0  0
 14 15  1  0  0  0  0
 14 16  2  0  0  0  0
 17 18  1  0  0  0  0
 17 19  2  0  0  0  0
M  ISO  3   1   2   3   2   4   2
M  END
>  <Supplier>
www.ambinter.com

>  <Ambinter_reference>
Amb33839414

>  <MW>
238.276

$$$$
Amb33866623
 OpenBabel08272101412D

 11 10  0  0  1  0  0  0  0  0999 V2000
    1.7321   -2.7321    0.0000 N   0  0  0  0  0  0  0  0  0  0  0  0
    1.7321   -1.7321    0.0000 C   0  0  0  0  0  0  0  0  0  0  0  0
    2.5981   -1.2321    0.0000 O   0  0  0  0  0  0  0  0  0  0  0  0
    0.8660   -1.2321    0.0000 N   0  0  0  0  0  0  0  0  0  0  0  0
    0.0000   -1.7321    0.0000 C   0  0  2  0  0  0  0  0  0  0  0  0
    0.5000   -2.5981    0.0000 H   0  0  0  0  0  0  0  0  0  0  0  0
   -0.8660   -2.2321    0.0000 C   0  0  0  0  0  0  0  0  0  0  0  0
   -0.8660   -3.2321    0.0000 S   0  0  0  0  0  0  0  0  0  0  0  0
   -0.5000   -0.8660    0.0000 C   0  0  0  0  0  0  0  0  0  0  0  0
   -1.5000   -0.8660    0.0000 O   0  0  0  0  0  0  0  0  0  0  0  0
    0.0000    0.0000    0.0000 O   0  0  0  0  0  0  0  0  0  0  0  0
  1  2  1  0  0  0  0
  2  3  2  0  0  0  0
  2  4  1  0  0  0  0
  4  5  1  0  0  0  0
  5  6  1  1  0  0  0
  5  7  1  0  0  0  0
  5  9  1  0  0  0  0
  7  8  1  0  0  0  0
  9 10  1  0  0  0  0
  9 11  2  0  0  0  0
M  END
>  <Supplier>
www.ambinter.com

>  <Ambinter_reference>
Amb33866623

>  <MW>
164.183

$$$$
Amb33924021
 OpenBabel08272101412D

 24 23  0  0  1  0  0  0  0  0999 V2000
    2.1340   -3.2321    0.0000 N   0  0  0  0  0  0  0  0  0  0  0  0
    1.6340   -2.3660    0.0000 C   0  0  0  0  0  0  0  0  0  0  0  0
    0.6340   -2.3660    0.0000 C   0  0  0  0  0  0  0  0  0  0  0  0
    0.1340   -3.2321    0.0000 O   0  0  0  0  0  0  0  0  0  0  0  0
    0.1340   -1.5000    0.0000 N   0  0  0  0  0  0  0  0  0  0  0  0
   -0.8660   -1.5000    0.0000 C   0  0  1  0  0  0  0  0  0  0  0  0
   -0.8660   -2.5000    0.0000 H   0  0  0  0  0  0  0  0  0  0  0  0
   -1.8660   -1.5000    0.0000 C   0  0  0  0  0  0  0  0  0  0  0  0
   -2.3660   -0.6340    0.0000 S   0  0  0  0  0  0  0  0  0  0  0  0
   -3.3660   -0.6340    0.0000 S   0  0  0  0  0  0  0  0  0  0  0  0
   -3.8660    0.2321    0.0000 C   0  0  0  0  0  0  0  0  0  0  0  0
   -4.8660    0.2321    0.0000 C   0  0  2  0  0  0  0  0  0  0  0  0
   -4.8660   -0.7679    0.0000 H   0  0  0  0  0  0  0  0  0  0  0  0
   -5.8660    0.2321    0.0000 N   0  0  0  0  0  0  0  0  0  0  0  0
   -6.3660   -0.6340    0.0000 C   0  0  0  0  0  0  0  0  0  0  0  0
   -7.3660   -0.6340    0.0000 O   0  0  0  0  0  0  0  0  0  0  0  0
   -5.8660   -1.5000    0.0000 C   0  0  0  0  0  0  0  0  0  0  0  0
   -6.3660   -2.3660    0.0000 N   0  0  0  0  0  0  0  0  0  0  0  0
   -4.8660    1.2321    0.0000 C   0  0  0  0  0  0  0  0  0  0  0  0
   -5.7321    1.7321    0.0000 O   0  0  0  0  0  0  0  0  0  0  0  0
   -4.0000    1.7321    0.0000 O   0  0  0  0  0  0  0  0  0  0  0  0
   -0.8660   -0.5000    0.0000 C   0  0  0  0  0  0  0  0  0  0  0  0
   -1.7321   -0.0000    0.0000 O   0  0  0  0  0  0  0  0  0  0  0  0
   -0.0000   -0.0000    0.0000 O   0  0  0  0  0  0  0  0  0  0  0  0
  1  2  1  0  0  0  0
  2  3  1  0  0  0  0
  3  4  2  0  0  0  0
  3  5  1  0  0  0  0
  5  6  1  0  0  0  0
  6  7  1  6  0  0  0
  6  8  1  0  0  0  0
  6 22  1  0  0  0  0
  8  9  1  0  0  0  0
  9 10  1  0  0  0  0
 10 11  1  0  0  0  0
 11 12  1  0  0  0  0
 12 13  1  1  0  0  0
 12 14  1  0  0  0  0
 12 19  1  0  0  0  0
 14 15  1  0  0  0  0
 15 16  2  0  0  0  0
 15 17  1  0  0  0  0
 17 18  1  0  0  0  0
 19 20  1  0  0  0  0
 19 21  2  0  0  0  0
 22 23  1  0  0  0  0
 22 24  2  0  0  0  0
M  END
>  <Supplier>
www.ambinter.com

>  <Ambinter_reference>
Amb33924021

>  <MW>
354.403

$$$$
Amb33934983
 OpenBabel08272101412D

 18 17  0  0  1  0  0  0  0  0999 V2000
    5.7254   -1.4167    0.0000 C   0  0  0  0  0  0  0  0  0  0  0  0
    4.9075   -0.9444    0.0000 C   0  0  0  0  0  0  0  0  0  0  0  0
    4.0896   -1.4167    0.0000 C   0  0  0  0  0  0  0  0  0  0  0  0
    3.2717   -0.9444    0.0000 C   0  0  0  0  0  0  0  0  0  0  0  0
    3.2717   -0.0000    0.0000 O   0  0  0  0  0  0  0  0  0  0  0  0
    2.4537   -1.4167    0.0000 N   0  0  0  0  0  0  0  0  0  0  0  0
    2.4537   -3.3056    0.0000 C   0  0  1  0  0  0  0  0  0  0  0  0
    3.3982   -3.3056    0.0000 H   0  0  0  0  0  0  0  0  0  0  0  0
    2.4537   -4.2500    0.0000 C   0  0  0  0  0  0  0  0  0  0  0  0
    3.2717   -4.7222    0.0000 S   0  0  0  0  0  0  0  0  0  0  0  0
    1.5093   -3.3056    0.0000 C   0  0  0  0  0  0  0  0  0  0  0  0
    1.0371   -4.1235    0.0000 O   0  0  0  0  0  0  0  0  0  0  0  0
    1.0371   -2.4876    0.0000 O   0  0  0  0  0  0  0  0  0  0  0  0
    1.6358   -0.9444    0.0000 C   0  0  0  0  0  0  0  0  0  0  0  0
    1.6358   -0.0000    0.0000 O   0  0  0  0  0  0  0  0  0  0  0  0
    0.8179   -1.4167    0.0000 C   0  0  0  0  0  0  0  0  0  0  0  0
   -0.0000   -0.9444    0.0000 C   0  0  0  0  0  0  0  0  0  0  0  0
   -0.0000   -0.0000    0.0000 C   0  0  0  0  0  0  0  0  0  0  0  0
  1  2  1  0  0  0  0
  2  3  1  0  0  0  0
  3  4  1  0  0  0  0
  4  5  2  0  0  0  0
  4  6  1  0  0  0  0
  6  7  1  0  0  0  0
  6 14  1  0  0  0  0
  7  8  1  6  0  0  0
  7  9  1  0  0  0  0
  7 11  1  0  0  0  0
  9 10  1  0  0  0  0
 11 12  1  0  0  0  0
 11 13  2  0  0  0  0
 14 15  2  0  0  0  0
 14 16  1  0  0  0  0
 16 17  1  0  0  0  0
 17 18  1  0  0  0  0
M  END
>  <Supplier>
www.ambinter.com

>  <Ambinter_reference>
Amb33934983

>  <MW>
261.338

$$$$
Amb33935672
 OpenBabel08272101412D

 16 15  0  0  1  0  0  0  0  0999 V2000
    0.8660    0.5000    0.0000 C   0  0  0  0  0  0  0  0  0  0  0  0
    0.8660    1.5000    0.0000 C   0  0  0  0  0  0  0  0  0  0  0  0
    1.7321    2.0000    0.0000 O   0  0  0  0  0  0  0  0  0  0  0  0
    0.0000    2.0000    0.0000 N   0  0  0  0  0  0  0  0  0  0  0  0
   -0.8660    1.5000    0.0000 C   0  0  3  0  0  0  0  0  0  0  0  0
   -1.7321    2.0000    0.0000 C   0  0  0  0  0  0  0  0  0  0  0  0
   -2.5981    1.5000    0.0000 S   0  0  0  0  0  0  0  0  0  0  0  0
   -3.4641    2.0000    0.0000 C   0  0  2  0  0  0  0  0  0  0  0  0
   -4.4641    2.0000    0.0000 H   0  0  0  0  0  0  0  0  0  0  0  0
   -3.9641    1.1340    0.0000 C   0  0  0  0  0  0  0  0  0  0  0  0
   -3.4641    3.0000    0.0000 C   0  0  0  0  0  0  0  0  0  0  0  0
   -4.3301    3.5000    0.0000 C   0  0  0  0  0  0  0  0  0  0  0  0
   -5.1962    3.0000    0.0000 O   0  0  0  0  0  0  0  0  0  0  0  0
   -0.8660    0.5000    0.0000 C   0  0  0  0  0  0  0  0  0  0  0  0
   -1.7321    0.0000    0.0000 O   0  0  0  0  0  0  0  0  0  0  0  0
    0.0000    0.0000    0.0000 O   0  0  0  0  0  0  0  0  0  0  0  0
  1  2  1  0  0  0  0
  2  3  2  0  0  0  0
  2  4  1  0  0  0  0
  4  5  1  0  0  0  0
  5  6  1  0  0  0  0
  5 14  1  0  0  0  0
  6  7  1  0  0  0  0
  7  8  1  0  0  0  0
  8  9  1  1  0  0  0
  8 10  1  0  0  0  0
  8 11  1  0  0  0  0
 11 12  1  0  0  0  0
 12 13  1  0  0  0  0
 14 15  1  0  0  0  0
 14 16  2  0  0  0  0
M  END
>  <Supplier>
www.ambinter.com

>  <Ambinter_reference>
Amb33935672

>  <MW>
235.301

$$$$
Amb33936233
 OpenBabel08272101412D

 26 23  0  0  1  0  0  0  0  0999 V2000
    0.5000   -4.5000    0.0000 O   0  0  0  0  0  0  0  0  0  0  0  0
   -1.7242   -3.4755    0.0000 O   0  0  0  0  0  0  0  0  0  0  0  0
    9.1603   -0.5000    0.0000 N   0  0  0  0  0  0  0  0  0  0  0  0
    9.1603   -1.5000    0.0000 C   0  0  1  0  0  0  0  0  0  0  0  0
    8.1603   -1.5000    0.0000 H   0  0  0  0  0  0  0  0  0  0  0  0
    9.1603   -2.5000    0.0000 C   0  0  0  0  0  0  0  0  0  0  0  0
    8.2942   -3.0000    0.0000 S   0  0  0  0  0  0  0  0  0  0  0  0
    7.4282   -2.5000    0.0000 S   0  0  0  0  0  0  0  0  0  0  0  0
    6.5622   -3.0000    0.0000 C   0  0  0  0  0  0  0  0  0  0  0  0
    5.6962   -2.5000    0.0000 C   0  0  2  0  0  0  0  0  0  0  0  0
    5.1962   -3.3660    0.0000 H   0  0  0  0  0  0  0  0  0  0  0  0
    4.8301   -2.0000    0.0000 N   0  0  0  0  0  0  0  0  0  0  0  0
    3.9641   -2.5000    0.0000 C   0  0  0  0  0  0  0  0  0  0  0  0
    3.9641   -3.5000    0.0000 O   0  0  0  0  0  0  0  0  0  0  0  0
    3.0981   -2.0000    0.0000 C   0  0  0  0  0  0  0  0  0  0  0  0
    2.2321   -2.5000    0.0000 N   0  0  0  0  0  0  0  0  0  0  0  0
    1.3660   -2.0000    0.0000 C   0  0  0  0  0  0  0  0  0  0  0  0
    0.5000   -2.5000    0.0000 O   0  0  0  0  0  0  0  0  0  0  0  0
    1.3660   -1.0000    0.0000 C   0  0  0  0  0  0  0  0  0  0  0  0
    0.5000   -0.5000    0.0000 N   0  0  0  0  0  0  0  0  0  0  0  0
    6.1962   -1.6340    0.0000 C   0  0  0  0  0  0  0  0  0  0  0  0
    5.6962   -0.7679    0.0000 O   0  0  0  0  0  0  0  0  0  0  0  0
    7.1962   -1.6340    0.0000 O   0  0  0  0  0  0  0  0  0  0  0  0
   10.1603   -1.5000    0.0000 C   0  0  0  0  0  0  0  0  0  0  0  0
   10.6603   -2.3660    0.0000 O   0  0  0  0  0  0  0  0  0  0  0  0
   10.6603   -0.6340    0.0000 O   0  0  0  0  0  0  0  0  0  0  0  0
  3  4  1  0  0  0  0
  4  5  1  1  0  0  0
  4  6  1  0  0  0  0
  4 24  1  0  0  0  0
  6  7  1  0  0  0  0
  7  8  1  0  0  0  0
  8  9  1  0  0  0  0
  9 10  1  0  0  0  0
 10 11  1  1  0  0  0
 10 12  1  0  0  0  0
 10 21  1  0  0  0  0
 12 13  1  0  0  0  0
 13 14  2  0  0  0  0
 13 15  1  0  0  0  0
 15 16  1  0  0  0  0
 16 17  1  0  0  0  0
 17 18  2  0  0  0  0
 17 19  1  0  0  0  0
 19 20  1  0  0  0  0
 21 22  1  0  0  0  0
 21 23  2  0  0  0  0
 24 25  1  0  0  0  0
 24 26  2  0  0  0  0
M  END
>  <Supplier>
www.ambinter.com

>  <Ambinter_reference>
Amb33936233

>  <MW>
390.434

$$$$
Amb34906371
 OpenBabel08272101412D

 16 15  0  0  1  0  0  0  0  0999 V2000
    0.8660    0.5000    0.0000 C   0  0  0  0  0  0  0  0  0  0  0  0
    0.8660    1.5000    0.0000 C   0  0  0  0  0  0  0  0  0  0  0  0
    1.7321    2.0000    0.0000 O   0  0  0  0  0  0  0  0  0  0  0  0
   -0.0000    2.0000    0.0000 N   0  0  0  0  0  0  0  0  0  0  0  0
   -0.8660    1.5000    0.0000 C   0  0  3  0  0  0  0  0  0  0  0  0
   -1.7321    2.0000    0.0000 C   0  0  0  0  0  0  0  0  0  0  0  0
   -2.5981    1.5000    0.0000 S   0  0  0  0  0  0  0  0  0  0  0  0
   -3.4641    2.0000    0.0000 C   0  0  0  0  0  0  0  0  0  0  0  0
   -4.3301    1.5000    0.0000 C   0  0  0  0  0  0  0  0  0  0  0  0
   -5.1962    2.0000    0.0000 N   0  0  0  0  0  0  0  0  0  0  0  0
   -6.0622    1.5000    0.0000 C   0  0  0  0  0  0  0  0  0  0  0  0
   -6.9282    2.0000    0.0000 C   0  0  0  0  0  0  0  0  0  0  0  0
   -6.0622    0.5000    0.0000 O   0  0  0  0  0  0  0  0  0  0  0  0
   -0.8660    0.5000    0.0000 C   0  0  0  0  0  0  0  0  0  0  0  0
   -1.7321   -0.0000    0.0000 O   0  0  0  0  0  0  0  0  0  0  0  0
    0.0000    0.0000    0.0000 O   0  0  0  0  0  0  0  0  0  0  0  0
  1  2  1  0  0  0  0
  2  3  2  0  0  0  0
  2  4  1  0  0  0  0
  4  5  1  0  0  0  0
  5  6  1  0  0  0  0
  5 14  1  0  0  0  0
  6  7  1  0  0  0  0
  7  8  1  0  0  0  0
  8  9  1  0  0  0  0
  9 10  1  0  0  0  0
 10 11  1  0  0  0  0
 11 12  1  0  0  0  0
 11 13  2  0  0  0  0
 14 15  1  0  0  0  0
 14 16  2  0  0  0  0
M  END
>  <Supplier>
www.ambinter.com

>  <Ambinter_reference>
Amb34906371

>  <MW>
248.299

$$$$
Amb34906415
 OpenBabel08272101412D

 17 16  0  0  1  0  0  0  0  0999 V2000
   -1.5000   -2.8660    0.0000 C   0  0  0  0  0  0  0  0  0  0  0  0
   -0.6340   -2.3660    0.0000 C   0  0  0  0  0  0  0  0  0  0  0  0
    0.2321   -2.8660    0.0000 O   0  0  0  0  0  0  0  0  0  0  0  0
   -0.6340   -1.3660    0.0000 N   0  0  0  0  0  0  0  0  0  0  0  0
   -1.5000   -0.8660    0.0000 C   0  0  1  0  0  0  0  0  0  0  0  0
   -2.0000   -1.7321    0.0000 H   0  0  0  0  0  0  0  0  0  0  0  0
   -2.3660   -0.3660    0.0000 C   0  0  0  0  0  0  0  0  0  0  0  0
   -3.2321   -0.8660    0.0000 S   0  0  0  0  0  0  0  0  0  0  0  0
   -4.0981   -0.3660    0.0000 C   0  0  0  0  0  0  0  0  0  0  0  0
   -4.9641   -0.8660    0.0000 C   0  0  3  0  0  0  0  0  0  0  0  0
   -4.9641   -1.8660    0.0000 C   0  0  0  0  0  0  0  0  0  0  0  0
   -5.8301   -0.3660    0.0000 C   0  0  0  0  0  0  0  0  0  0  0  0
   -6.6962   -0.8660    0.0000 O   0  0  0  0  0  0  0  0  0  0  0  0
   -5.8301    0.6340    0.0000 O   0  0  0  0  0  0  0  0  0  0  0  0
   -1.0000   -0.0000    0.0000 C   0  0  0  0  0  0  0  0  0  0  0  0
   -1.5000    0.8660    0.0000 O   0  0  0  0  0  0  0  0  0  0  0  0
    0.0000    0.0000    0.0000 O   0  0  0  0  0  0  0  0  0  0  0  0
  1  2  1  0  0  0  0
  2  3  2  0  0  0  0
  2  4  1  0  0  0  0
  4  5  1  0  0  0  0
  5  6  1  6  0  0  0
  5  7  1  0  0  0  0
  5 15  1  0  0  0  0
  7  8  1  0  0  0  0
  8  9  1  0  0  0  0
  9 10  1  0  0  0  0
 10 11  1  0  0  0  0
 10 12  1  0  0  0  0
 12 13  1  0  0  0  0
 12 14  2  0  0  0  0
 15 16  1  0  0  0  0
 15 17  2  0  0  0  0
M  END
>  <Supplier>
www.ambinter.com

>  <Ambinter_reference>
Amb34906415

>  <MW>
249.284

$$$$
Amb34921485
 OpenBabel08272101412D

 22 20  0  0  1  0  0  0  0  0999 V2000
    4.5981   -2.5000    0.0000 C   0  0  0  0  0  0  0  0  0  0  0  0
    3.7321   -2.0000    0.0000 C   0  0  0  0  0  0  0  0  0  0  0  0
    3.7321   -1.0000    0.0000 O   0  0  0  0  0  0  0  0  0  0  0  0
    2.8660   -2.5000    0.0000 N   0  0  0  0  0  0  0  0  0  0  0  0
    2.0000   -2.0000    0.0000 C   0  0  1  0  0  0  0  0  0  0  0  0
    2.5000   -1.1340    0.0000 H   0  0  0  0  0  0  0  0  0  0  0  0
    1.1340   -1.5000    0.0000 C   0  0  0  0  0  0  0  0  0  0  0  0
    1.1340   -0.5000    0.0000 S   0  0  0  0  0  0  0  0  0  0  0  0
    1.5000   -2.8660    0.0000 C   0  0  0  0  0  0  0  0  0  0  0  0
    0.5000   -2.8660    0.0000 O   0  0  0  0  0  0  0  0  0  0  0  0
    2.0000   -3.7321    0.0000 O   0  0  0  0  0  0  0  0  0  0  0  0
    9.0622   -0.5000    0.0000 N   0  0  0  0  0  0  0  0  0  0  0  0
    9.0622   -1.5000    0.0000 C   0  0  1  0  0  0  0  0  0  0  0  0
    8.0622   -1.5000    0.0000 H   0  0  0  0  0  0  0  0  0  0  0  0
    9.0622   -2.5000    0.0000 C   0  0  0  0  0  0  0  0  0  0  0  0
    8.1962   -3.0000    0.0000 C   0  0  0  0  0  0  0  0  0  0  0  0
    7.3301   -2.5000    0.0000 C   0  0  0  0  0  0  0  0  0  0  0  0
    6.4641   -3.0000    0.0000 C   0  0  0  0  0  0  0  0  0  0  0  0
    5.5981   -2.5000    0.0000 N   0  0  0  0  0  0  0  0  0  0  0  0
   10.0622   -1.5000    0.0000 C   0  0  0  0  0  0  0  0  0  0  0  0
   10.5622   -2.3660    0.0000 O   0  0  0  0  0  0  0  0  0  0  0  0
   10.5622   -0.6340    0.0000 O   0  0  0  0  0  0  0  0  0  0  0  0
  1  2  1  0  0  0  0
  2  3  2  0  0  0  0
  2  4  1  0  0  0  0
  4  5  1  0  0  0  0
  5  6  1  1  0  0  0
  5  7  1  0  0  0  0
  5  9  1  0  0  0  0
  7  8  1  0  0  0  0
  9 10  1  0  0  0  0
  9 11  2  0  0  0  0
 12 13  1  0  0  0  0
 13 14  1  1  0  0  0
 13 15  1  0  0  0  0
 13 20  1  0  0  0  0
 15 16  1  0  0  0  0
 16 17  1  0  0  0  0
 17 18  1  0  0  0  0
 18 19  1  0  0  0  0
 20 21  1  0  0  0  0
 20 22  2  0  0  0  0
M  END
>  <Supplier>
www.ambinter.com

>  <Ambinter_reference>
Amb34921485

>  <MW>
309.382

$$$$
Amb34921952
 OpenBabel08272101412D

 16 15  0  0  1  0  0  0  0  0999 V2000
    0.1340   -3.2321    0.0000 C   0  0  0  0  0  0  0  0  0  0  0  0
    0.6340   -2.3660    0.0000 C   0  0  0  0  0  0  0  0  0  0  0  0
    1.6340   -2.3660    0.0000 O   0  0  0  0  0  0  0  0  0  0  0  0
    0.1340   -1.5000    0.0000 N   0  0  0  0  0  0  0  0  0  0  0  0
   -0.8660   -1.5000    0.0000 C   0  0  1  0  0  0  0  0  0  0  0  0
   -0.8660   -2.5000    0.0000 H   0  0  0  0  0  0  0  0  0  0  0  0
   -1.8660   -1.5000    0.0000 C   0  0  0  0  0  0  0  0  0  0  0  0
   -2.3660   -2.3660    0.0000 S   0  0  0  0  0  0  0  0  0  0  0  0
   -3.3660   -2.3660    0.0000 C   0  0  0  0  0  0  0  0  0  0  0  0
   -3.8660   -3.2321    0.0000 C   0  0  0  0  0  0  0  0  0  0  0  0
   -4.8660   -3.2321    0.0000 C   0  0  0  0  0  0  0  0  0  0  0  0
   -5.3660   -4.0981    0.0000 C   0  0  0  0  0  0  0  0  0  0  0  0
   -6.3660   -4.0981    0.0000 C   0  0  0  0  0  0  0  0  0  0  0  0
   -0.8660   -0.5000    0.0000 C   0  0  0  0  0  0  0  0  0  0  0  0
   -1.7321    0.0000    0.0000 O   0  0  0  0  0  0  0  0  0  0  0  0
    0.0000    0.0000    0.0000 O   0  0  0  0  0  0  0  0  0  0  0  0
  1  2  1  0  0  0  0
  2  3  2  0  0  0  0
  2  4  1  0  0  0  0
  4  5  1  0  0  0  0
  5  6  1  6  0  0  0
  5  7  1  0  0  0  0
  5 14  1  0  0  0  0
  7  8  1  0  0  0  0
  8  9  1  0  0  0  0
  9 10  1  0  0  0  0
 10 11  1  0  0  0  0
 11 12  1  0  0  0  0
 12 13  1  0  0  0  0
 14 15  1  0  0  0  0
 14 16  2  0  0  0  0
M  END
>  <Supplier>
www.ambinter.com

>  <Ambinter_reference>
Amb34921952

>  <MW>
233.328

$$$$
Amb34923786
 OpenBabel08272101412D

 13 12  0  0  1  0  0  0  0  0999 V2000
    0.1340   -3.2321    0.0000 C   0  0  0  0  0  0  0  0  0  0  0  0
    0.6340   -2.3660    0.0000 C   0  0  0  0  0  0  0  0  0  0  0  0
    1.6340   -2.3660    0.0000 O   0  0  0  0  0  0  0  0  0  0  0  0
    0.1340   -1.5000    0.0000 N   0  0  0  0  0  0  0  0  0  0  0  0
   -0.8660   -1.5000    0.0000 C   0  0  1  0  0  0  0  0  0  0  0  0
   -0.8660   -2.5000    0.0000 H   0  0  0  0  0  0  0  0  0  0  0  0
   -1.8660   -1.5000    0.0000 C   0  0  0  0  0  0  0  0  0  0  0  0
   -2.3660   -2.3660    0.0000 S   0  0  0  0  0  0  0  0  0  0  0  0
   -3.3660   -2.3660    0.0000 N   0  0  0  0  0  0  0  0  0  0  0  0
   -3.8660   -3.2321    0.0000 O   0  0  0  0  0  0  0  0  0  0  0  0
   -0.8660   -0.5000    0.0000 C   0  0  0  0  0  0  0  0  0  0  0  0
   -1.7321    0.0000    0.0000 O   0  0  0  0  0  0  0  0  0  0  0  0
    0.0000    0.0000    0.0000 O   0  0  0  0  0  0  0  0  0  0  0  0
  1  2  1  0  0  0  0
  2  3  2  0  0  0  0
  2  4  1  0  0  0  0
  4  5  1  0  0  0  0
  5  6  1  6  0  0  0
  5  7  1  0  0  0  0
  5 11  1  0  0  0  0
  7  8  1  0  0  0  0
  8  9  1  0  0  0  0
  9 10  2  0  0  0  0
 11 12  1  0  0  0  0
 11 13  2  0  0  0  0
M  END
>  <Supplier>
www.ambinter.com

>  <Ambinter_reference>
Amb34923786

>  <MW>
192.193

$$$$
Amb34925385
 OpenBabel08272101412D

 22 21  0  0  1  0  0  0  0  0999 V2000
    0.1340   -3.2321    0.0000 C   0  0  0  0  0  0  0  0  0  0  0  0
    0.6340   -2.3660    0.0000 C   0  0  0  0  0  0  0  0  0  0  0  0
    1.6340   -2.3660    0.0000 O   0  0  0  0  0  0  0  0  0  0  0  0
    0.1340   -1.5000    0.0000 N   0  0  0  0  0  0  0  0  0  0  0  0
   -0.8660   -1.5000    0.0000 C   0  0  1  0  0  0  0  0  0  0  0  0
   -0.8660   -2.5000    0.0000 H   0  0  0  0  0  0  0  0  0  0  0  0
   -1.8660   -1.5000    0.0000 C   0  0  0  0  0  0  0  0  0  0  0  0
   -2.3660   -2.3660    0.0000 S   0  0  0  0  0  0  0  0  0  0  0  0
   -3.3660   -2.3660    0.0000 S   0  0  0  0  0  0  0  0  0  0  0  0
   -3.8660   -3.2321    0.0000 C   0  0  0  0  0  0  0  0  0  0  0  0
   -4.8660   -3.2321    0.0000 C   0  0  1  0  0  0  0  0  0  0  0  0
   -4.8660   -4.2321    0.0000 H   0  0  0  0  0  0  0  0  0  0  0  0
   -5.8660   -3.2321    0.0000 N   0  0  0  0  0  0  0  0  0  0  0  0
   -6.3660   -4.0981    0.0000 C   0  0  0  0  0  0  0  0  0  0  0  0
   -5.8660   -4.9641    0.0000 C   0  0  0  0  0  0  0  0  0  0  0  0
   -7.3660   -4.0981    0.0000 O   0  0  0  0  0  0  0  0  0  0  0  0
   -4.8660   -2.2321    0.0000 C   0  0  0  0  0  0  0  0  0  0  0  0
   -5.7321   -1.7321    0.0000 O   0  0  0  0  0  0  0  0  0  0  0  0
   -4.0000   -1.7321    0.0000 O   0  0  0  0  0  0  0  0  0  0  0  0
   -0.8660   -0.5000    0.0000 C   0  0  0  0  0  0  0  0  0  0  0  0
   -1.7321    0.0000    0.0000 O   0  0  0  0  0  0  0  0  0  0  0  0
    0.0000    0.0000    0.0000 O   0  0  0  0  0  0  0  0  0  0  0  0
  1  2  1  0  0  0  0
  2  3  2  0  0  0  0
  2  4  1  0  0  0  0
  4  5  1  0  0  0  0
  5  6  1  6  0  0  0
  5  7  1  0  0  0  0
  5 20  1  0  0  0  0
  7  8  1  0  0  0  0
  8  9  1  0  0  0  0
  9 10  1  0  0  0  0
 10 11  1  0  0  0  0
 11 12  1  6  0  0  0
 11 13  1  0  0  0  0
 11 17  1  0  0  0  0
 13 14  1  0  0  0  0
 14 15  1  0  0  0  0
 14 16  2  0  0  0  0
 17 18  1  0  0  0  0
 17 19  2  0  0  0  0
 20 21  1  0  0  0  0
 20 22  2  0  0  0  0
M  END
>  <Supplier>
www.ambinter.com

>  <Ambinter_reference>
Amb34925385

>  <MW>
324.374

$$$$
Amb35755671
 OpenBabel08272101412D

 14 13  0  0  1  0  0  0  0  0999 V2000
   -0.8660   -0.5000    0.0000 C   0  0  0  0  0  0  0  0  0  0  0  0
   -0.8660   -1.5000    0.0000 C   0  0  0  0  0  0  0  0  0  0  0  0
   -1.7321   -2.0000    0.0000 O   0  0  0  0  0  0  0  0  0  0  0  0
    0.0000   -2.0000    0.0000 N   0  0  0  0  0  0  0  0  0  0  0  0
    0.8660   -1.5000    0.0000 C   0  0  3  0  0  0  0  0  0  0  0  0
    1.7321   -2.0000    0.0000 C   0  0  0  0  0  0  0  0  0  0  0  0
    2.5981   -1.5000    0.0000 S   0  0  0  0  0  0  0  0  0  0  0  0
    3.4641   -2.0000    0.0000 C   0  0  0  0  0  0  0  0  0  0  0  0
    4.3301   -1.5000    0.0000 C   0  0  0  0  0  0  0  0  0  0  0  0
    5.1962   -2.0000    0.0000 C   0  0  0  0  0  0  0  0  0  0  0  0
    6.0622   -2.5000    0.0000 N   0  0  0  0  0  0  0  0  0  0  0  0
    0.8660   -0.5000    0.0000 C   0  0  0  0  0  0  0  0  0  0  0  0
    1.7321    0.0000    0.0000 O   0  0  0  0  0  0  0  0  0  0  0  0
    0.0000   -0.0000    0.0000 O   0  0  0  0  0  0  0  0  0  0  0  0
  1  2  1  0  0  0  0
  2  3  2  0  0  0  0
  2  4  1  0  0  0  0
  4  5  1  0  0  0  0
  5  6  1  0  0  0  0
  5 12  1  0  0  0  0
  6  7  1  0  0  0  0
  7  8  1  0  0  0  0
  8  9  1  0  0  0  0
  9 10  1  0  0  0  0
 10 11  3  0  0  0  0
 12 13  1  0  0  0  0
 12 14  2  0  0  0  0
M  END
>  <Supplier>
www.ambinter.com

>  <Ambinter_reference>
Amb35755671

>  <MW>
216.257

$$$$
Amb35755773
 OpenBabel08272101412D

 13 12  0  0  1  0  0  0  0  0999 V2000
    1.7321   -0.0000    0.0000 H   0  0  0  0  0  0  0  0  0  0  0  0
    0.8660    0.5000    0.0000 C   0  0  0  0  0  0  0  0  0  0  0  0
   -0.1340    0.5000    0.0000 H   0  0  0  0  0  0  0  0  0  0  0  0
    0.3660   -0.3660    0.0000 H   0  0  0  0  0  0  0  0  0  0  0  0
    0.8660    1.5000    0.0000 C   0  0  0  0  0  0  0  0  0  0  0  0
    1.7321    2.0000    0.0000 O   0  0  0  0  0  0  0  0  0  0  0  0
   -0.0000    2.0000    0.0000 N   0  0  0  0  0  0  0  0  0  0  0  0
   -0.8660    1.5000    0.0000 C   0  0  3  0  0  0  0  0  0  0  0  0
   -1.7321    2.0000    0.0000 C   0  0  0  0  0  0  0  0  0  0  0  0
   -2.5981    1.5000    0.0000 S   0  0  0  0  0  0  0  0  0  0  0  0
   -0.8660    0.5000    0.0000 C   0  0  0  0  0  0  0  0  0  0  0  0
   -1.7321   -0.0000    0.0000 O   0  0  0  0  0  0  0  0  0  0  0  0
   -0.0000   -0.0000    0.0000 O   0  0  0  0  0  0  0  0  0  0  0  0
  1  2  1  0  0  0  0
  2  3  1  0  0  0  0
  2  4  1  0  0  0  0
  2  5  1  0  0  0  0
  5  6  2  0  0  0  0
  5  7  1  0  0  0  0
  7  8  1  0  0  0  0
  8  9  1  0  0  0  0
  8 11  1  0  0  0  0
  9 10  1  0  0  0  0
 11 12  1  0  0  0  0
 11 13  2  0  0  0  0
M  ISO  3   1   2   3   2   4   2
M  END
>  <Supplier>
www.ambinter.com

>  <Ambinter_reference>
Amb35755773

>  <MW>
166.213

$$$$
Amb35793910
 OpenBabel08272101412D

 20 19  0  0  1  0  0  0  0  0999 V2000
    3.0000    2.7321    0.0000 H   0  0  0  0  0  0  0  0  0  0  0  0
    2.1340    3.2321    0.0000 C   0  0  0  0  0  0  0  0  0  0  0  0
    2.6340    4.0981    0.0000 H   0  0  0  0  0  0  0  0  0  0  0  0
    1.2679    3.7321    0.0000 C   0  0  0  0  0  0  0  0  0  0  0  0
    1.2679    4.7321    0.0000 N   0  0  0  0  0  0  0  0  0  0  0  0
    0.4019    3.2321    0.0000 O   0  0  0  0  0  0  0  0  0  0  0  0
    1.6340    2.3660    0.0000 C   0  0  0  0  0  0  0  0  0  0  0  0
    1.6340    1.3660    0.0000 H   0  0  0  0  0  0  0  0  0  0  0  0
    2.5000    1.8660    0.0000 H   0  0  0  0  0  0  0  0  0  0  0  0
    0.6340    2.3660    0.0000 S   0  0  0  0  0  0  0  0  0  0  0  0
    0.1340    1.5000    0.0000 C   0  0  0  0  0  0  0  0  0  0  0  0
   -0.8660    1.5000    0.0000 C   0  0  1  0  0  0  0  0  0  0  0  0
   -0.8660    2.5000    0.0000 H   0  0  0  0  0  0  0  0  0  0  0  0
   -1.8660    1.5000    0.0000 N   0  0  0  0  0  0  0  0  0  0  0  0
   -2.3660    2.3660    0.0000 C   0  0  0  0  0  0  0  0  0  0  0  0
   -3.3660    2.3660    0.0000 C   0  0  0  0  0  0  0  0  0  0  0  0
   -1.8660    3.2321    0.0000 O   0  0  0  0  0  0  0  0  0  0  0  0
   -0.8660    0.5000    0.0000 C   0  0  0  0  0  0  0  0  0  0  0  0
   -1.7321    0.0000    0.0000 O   0  0  0  0  0  0  0  0  0  0  0  0
   -0.0000   -0.0000    0.0000 O   0  0  0  0  0  0  0  0  0  0  0  0
  1  2  1  0  0  0  0
  2  3  1  0  0  0  0
  2  4  1  0  0  0  0
  2  7  1  0  0  0  0
  4  5  1  0  0  0  0
  4  6  2  0  0  0  0
  7  8  1  0  0  0  0
  7  9  1  0  0  0  0
  7 10  1  0  0  0  0
 10 11  1  0  0  0  0
 11 12  1  0  0  0  0
 12 13  1  1  0  0  0
 12 14  1  0  0  0  0
 12 18  1  0  0  0  0
 14 15  1  0  0  0  0
 15 16  1  0  0  0  0
 15 17  2  0  0  0  0
 18 19  1  0  0  0  0
 18 20  2  0  0  0  0
M  ISO  4   1   2   3   2   8   2   9   2
M  END
>  <Supplier>
www.ambinter.com

>  <Ambinter_reference>
Amb35793910

>  <MW>
238.297

$$$$
Amb35798645
 OpenBabel08272101412D

 14 13  0  0  1  0  0  0  0  0999 V2000
    1.7321   -2.7321    0.0000 C   0  0  0  0  0  0  0  0  0  0  0  0
    1.7321   -1.7321    0.0000 C   0  0  0  0  0  0  0  0  0  0  0  0
    2.5981   -1.2321    0.0000 O   0  0  0  0  0  0  0  0  0  0  0  0
    0.8660   -1.2321    0.0000 N   0  0  0  0  0  0  0  0  0  0  0  0
    0.8660   -0.2321    0.0000 H   0  0  0  0  0  0  0  0  0  0  0  0
    0.0000   -1.7321    0.0000 C   0  0  1  0  0  0  0  0  0  0  0  0
    0.5000   -2.5981    0.0000 H   0  0  0  0  0  0  0  0  0  0  0  0
   -0.8660   -2.2321    0.0000 C   0  0  0  0  0  0  0  0  0  0  0  0
   -1.8660   -2.2321    0.0000 H   0  0  0  0  0  0  0  0  0  0  0  0
   -1.3660   -1.3660    0.0000 H   0  0  0  0  0  0  0  0  0  0  0  0
   -0.8660   -3.2321    0.0000 S   0  0  0  0  0  0  0  0  0  0  0  0
   -0.5000   -0.8660    0.0000 C   0  0  0  0  0  0  0  0  0  0  0  0
   -1.5000   -0.8660    0.0000 O   0  0  0  0  0  0  0  0  0  0  0  0
    0.0000    0.0000    0.0000 O   0  0  0  0  0  0  0  0  0  0  0  0
  1  2  1  0  0  0  0
  2  3  2  0  0  0  0
  2  4  1  0  0  0  0
  4  5  1  0  0  0  0
  4  6  1  0  0  0  0
  6  7  1  6  0  0  0
  6  8  1  0  0  0  0
  6 12  1  0  0  0  0
  8  9  1  0  0  0  0
  8 10  1  0  0  0  0
  8 11  1  0  0  0  0
 12 13  1  0  0  0  0
 12 14  2  0  0  0  0
M  ISO  4   4  15   6  13   8  13  12  13
M  END
>  <Supplier>
www.ambinter.com

>  <Ambinter_reference>
Amb35798645

>  <MW>
167.166

$$$$
Amb35800445
 OpenBabel08272101412D

 12 11  0  0  1  0  0  0  0  0999 V2000
   -1.6810    0.0151    0.0000 Na  0  3  0  0  0 15  0  0  0  0  0  0
    1.8722   -4.1730    0.0000 O   0  5  0  0  0  0  0  0  0  0  0  0
    2.1310   -3.2071    0.0000 C   0  0  0  0  0  0  0  0  0  0  0  0
    3.0969   -2.9483    0.0000 O   0  0  0  0  0  0  0  0  0  0  0  0
    1.4239   -2.5000    0.0000 C   0  0  2  0  0  0  0  0  0  0  0  0
    0.5000   -2.8827    0.0000 H   0  0  0  0  0  0  0  0  0  0  0  0
    0.5579   -2.0000    0.0000 C   0  0  0  0  0  0  0  0  0  0  0  0
    0.5579   -1.0000    0.0000 S   0  0  0  0  0  0  0  0  0  0  0  0
    1.4239   -0.5000    0.0000 C   0  0  0  0  0  0  0  0  0  0  0  0
    2.2899   -1.0000    0.0000 C   0  0  0  0  0  0  0  0  0  0  0  0
    3.1559   -0.5000    0.0000 O   0  0  0  0  0  0  0  0  0  0  0  0
    2.2899   -2.0000    0.0000 N   0  0  0  0  0  0  0  0  0  0  0  0
  2  3  1  0  0  0  0
  3  4  2  0  0  0  0
  3  5  1  0  0  0  0
  5  6  1  1  0  0  0
  5 12  1  0  0  0  0
  5  7  1  0  0  0  0
  7  8  1  0  0  0  0
  8  9  1  0  0  0  0
  9 10  1  0  0  0  0
 10 11  2  0  0  0  0
 10 12  1  0  0  0  0
M  CHG  2   1   1   2  -1
M  END
>  <Supplier>
www.ambinter.com

>  <Ambinter_reference>
Amb35800445

>  <MW>
183.161

$$$$
Amb35806079
 OpenBabel08272101412D

 16 15  0  0  1  0  0  0  0  0999 V2000
    0.1340   -3.2321    0.0000 C   0  0  0  0  0  0  0  0  0  0  0  0
    0.6340   -2.3660    0.0000 C   0  0  0  0  0  0  0  0  0  0  0  0
    1.6340   -2.3660    0.0000 O   0  0  0  0  0  0  0  0  0  0  0  0
    0.1340   -1.5000    0.0000 N   0  0  0  0  0  0  0  0  0  0  0  0
   -0.8660   -1.5000    0.0000 C   0  0  1  0  0  0  0  0  0  0  0  0
   -0.8660   -2.5000    0.0000 H   0  0  0  0  0  0  0  0  0  0  0  0
   -1.8660   -1.5000    0.0000 C   0  0  0  0  0  0  0  0  0  0  0  0
   -2.3660   -2.3660    0.0000 S   0  0  0  0  0  0  0  0  0  0  0  0
   -3.3660   -2.3660    0.0000 C   0  0  0  0  0  0  0  0  0  0  0  0
   -3.8660   -3.2321    0.0000 C   0  0  3  0  0  0  0  0  0  0  0  0
   -3.3660   -4.0981    0.0000 O   0  0  0  0  0  0  0  0  0  0  0  0
   -4.8660   -3.2321    0.0000 C   0  0  0  0  0  0  0  0  0  0  0  0
   -5.3660   -4.0981    0.0000 O   0  0  0  0  0  0  0  0  0  0  0  0
   -0.8660   -0.5000    0.0000 C   0  0  0  0  0  0  0  0  0  0  0  0
   -1.7321    0.0000    0.0000 O   0  0  0  0  0  0  0  0  0  0  0  0
    0.0000    0.0000    0.0000 O   0  0  0  0  0  0  0  0  0  0  0  0
  1  2  1  0  0  0  0
  2  3  2  0  0  0  0
  2  4  1  0  0  0  0
  4  5  1  0  0  0  0
  5  6  1  6  0  0  0
  5  7  1  0  0  0  0
  5 14  1  0  0  0  0
  7  8  1  0  0  0  0
  8  9  1  0  0  0  0
  9 10  1  0  0  0  0
 10 11  1  0  0  0  0
 10 12  1  0  0  0  0
 12 13  2  0  0  0  0
 14 15  1  0  0  0  0
 14 16  2  0  0  0  0
M  END
>  <Supplier>
www.ambinter.com

>  <Ambinter_reference>
Amb35806079

>  <MW>
235.258

$$$$
Amb35809838
 OpenBabel08272101412D

 23 20  0  0  1  0  0  0  0  0999 V2000
    8.7321   -0.5000    0.0000 Na  0  3  0  0  0 15  0  0  0  0  0  0
   -2.6760   -1.0342    0.0000 Na  0  3  0  0  0 15  0  0  0  0  0  0
    5.0000   -5.4641    0.0000 C   0  0  0  0  0  0  0  0  0  0  0  0
    6.0000   -5.4641    0.0000 C   0  0  0  0  0  0  0  0  0  0  0  0
    6.5000   -6.3301    0.0000 O   0  0  0  0  0  0  0  0  0  0  0  0
    6.5000   -4.5981    0.0000 N   0  0  0  0  0  0  0  0  0  0  0  0
    6.0000   -3.7321    0.0000 C   0  0  1  0  0  0  0  0  0  0  0  0
    5.1340   -4.2321    0.0000 H   0  0  0  0  0  0  0  0  0  0  0  0
    5.5000   -2.8660    0.0000 C   0  0  0  0  0  0  0  0  0  0  0  0
    4.5000   -2.8660    0.0000 S   0  0  0  0  0  0  0  0  0  0  0  0
    4.0000   -2.0000    0.0000 C   0  0  0  0  0  0  0  0  0  0  0  0
    3.0000   -2.0000    0.0000 C   0  0  2  0  0  0  0  0  0  0  0  0
    3.0000   -3.0000    0.0000 H   0  0  0  0  0  0  0  0  0  0  0  0
    2.0000   -2.0000    0.0000 N   0  0  0  0  0  0  0  0  0  0  0  0
    1.5000   -2.8660    0.0000 C   0  0  0  0  0  0  0  0  0  0  0  0
    0.5000   -2.8660    0.0000 C   0  0  0  0  0  0  0  0  0  0  0  0
    2.0000   -3.7321    0.0000 O   0  0  0  0  0  0  0  0  0  0  0  0
    3.0000   -1.0000    0.0000 C   0  0  0  0  0  0  0  0  0  0  0  0
    2.1340   -0.5000    0.0000 O   0  5  0  0  0  0  0  0  0  0  0  0
    3.8660   -0.5000    0.0000 O   0  0  0  0  0  0  0  0  0  0  0  0
    6.8660   -3.2321    0.0000 C   0  0  0  0  0  0  0  0  0  0  0  0
    6.8660   -2.2321    0.0000 O   0  5  0  0  0  0  0  0  0  0  0  0
    7.7321   -3.7321    0.0000 O   0  0  0  0  0  0  0  0  0  0  0  0
  3  4  1  0  0  0  0
  4  5  2  0  0  0  0
  4  6  1  0  0  0  0
  6  7  1  0  0  0  0
  7  8  1  6  0  0  0
  7  9  1  0  0  0  0
  7 21  1  0  0  0  0
  9 10  1  0  0  0  0
 10 11  1  0  0  0  0
 11 12  1  0  0  0  0
 12 13  1  1  0  0  0
 12 14  1  0  0  0  0
 12 18  1  0  0  0  0
 14 15  1  0  0  0  0
 15 16  1  0  0  0  0
 15 17  2  0  0  0  0
 18 19  1  0  0  0  0
 18 20  2  0  0  0  0
 21 22  1  0  0  0  0
 21 23  2  0  0  0  0
M  CHG  4   1   1   2   1  19  -1  22  -1
M  END
>  <Supplier>
www.ambinter.com

>  <Ambinter_reference>
Amb35809838

>  <MW>
336.272

$$$$
Amb35818965
 OpenBabel08272101412D

 13 12  0  0  1  0  0  0  0  0999 V2000
    0.8660    0.5000    0.0000 C   0  0  0  0  0  0  0  0  0  0  0  0
    0.8660    1.5000    0.0000 C   0  0  0  0  0  0  0  0  0  0  0  0
    1.7321    2.0000    0.0000 O   0  0  0  0  0  0  0  0  0  0  0  0
    0.0000    2.0000    0.0000 N   0  0  0  0  0  0  0  0  0  0  0  0
   -0.8660    1.5000    0.0000 C   0  0  3  0  0  0  0  0  0  0  0  0
   -1.7321    2.0000    0.0000 C   0  0  0  0  0  0  0  0  0  0  0  0
   -2.5981    1.5000    0.0000 S   0  0  0  0  0  0  0  0  0  0  0  0
   -3.4641    2.0000    0.0000 C   0  0  0  0  0  0  0  0  0  0  0  0
   -4.3301    1.5000    0.0000 C   0  0  0  0  0  0  0  0  0  0  0  0
   -5.1962    2.0000    0.0000 C   0  0  0  0  0  0  0  0  0  0  0  0
   -0.8660    0.5000    0.0000 C   0  0  0  0  0  0  0  0  0  0  0  0
   -1.7321    0.0000    0.0000 O   0  0  0  0  0  0  0  0  0  0  0  0
    0.0000    0.0000    0.0000 O   0  0  0  0  0  0  0  0  0  0  0  0
  1  2  1  0  0  0  0
  2  3  2  0  0  0  0
  2  4  1  0  0  0  0
  4  5  1  0  0  0  0
  5  6  1  0  0  0  0
  5 11  1  0  0  0  0
  6  7  1  0  0  0  0
  7  8  1  0  0  0  0
  8  9  1  0  0  0  0
  9 10  2  0  0  0  0
 11 12  1  0  0  0  0
 11 13  2  0  0  0  0
M  END
>  <Supplier>
www.ambinter.com

>  <Ambinter_reference>
Amb35818965

>  <MW>
203.259

$$$$
Amb35818966
 OpenBabel08272101412D

 12 11  0  0  1  0  0  0  0  0999 V2000
    0.8660    0.5000    0.0000 C   0  0  0  0  0  0  0  0  0  0  0  0
    0.8660    1.5000    0.0000 C   0  0  0  0  0  0  0  0  0  0  0  0
    1.7321    2.0000    0.0000 O   0  0  0  0  0  0  0  0  0  0  0  0
    0.0000    2.0000    0.0000 N   0  0  0  0  0  0  0  0  0  0  0  0
   -0.8660    1.5000    0.0000 C   0  0  3  0  0  0  0  0  0  0  0  0
   -1.7321    2.0000    0.0000 C   0  0  0  0  0  0  0  0  0  0  0  0
   -2.5981    1.5000    0.0000 S   0  0  0  0  0  0  0  0  0  0  0  0
   -3.4641    2.0000    0.0000 C   0  0  0  0  0  0  0  0  0  0  0  0
   -4.3301    1.5000    0.0000 C   0  0  0  0  0  0  0  0  0  0  0  0
   -0.8660    0.5000    0.0000 C   0  0  0  0  0  0  0  0  0  0  0  0
   -1.7321    0.0000    0.0000 O   0  0  0  0  0  0  0  0  0  0  0  0
    0.0000    0.0000    0.0000 O   0  0  0  0  0  0  0  0  0  0  0  0
  1  2  1  0  0  0  0
  2  3  2  0  0  0  0
  2  4  1  0  0  0  0
  4  5  1  0  0  0  0
  5  6  1  0  0  0  0
  5 10  1  0  0  0  0
  6  7  1  0  0  0  0
  7  8  1  0  0  0  0
  8  9  1  0  0  0  0
 10 11  1  0  0  0  0
 10 12  2  0  0  0  0
M  END
>  <Supplier>
www.ambinter.com

>  <Ambinter_reference>
Amb35818966

>  <MW>
191.248

$$$$
Amb35818967
 OpenBabel08272101412D

 13 12  0  0  1  0  0  0  0  0999 V2000
    0.8660    0.5000    0.0000 C   0  0  0  0  0  0  0  0  0  0  0  0
    0.8660    1.5000    0.0000 C   0  0  0  0  0  0  0  0  0  0  0  0
    1.7321    2.0000    0.0000 O   0  0  0  0  0  0  0  0  0  0  0  0
    0.0000    2.0000    0.0000 N   0  0  0  0  0  0  0  0  0  0  0  0
   -0.8660    1.5000    0.0000 C   0  0  3  0  0  0  0  0  0  0  0  0
   -1.7321    2.0000    0.0000 C   0  0  0  0  0  0  0  0  0  0  0  0
   -2.5981    1.5000    0.0000 S   0  0  0  0  0  0  0  0  0  0  0  0
   -3.4641    2.0000    0.0000 C   0  0  0  0  0  0  0  0  0  0  0  0
   -4.3301    1.5000    0.0000 C   0  0  0  0  0  0  0  0  0  0  0  0
   -5.1962    2.0000    0.0000 C   0  0  0  0  0  0  0  0  0  0  0  0
   -0.8660    0.5000    0.0000 C   0  0  0  0  0  0  0  0  0  0  0  0
   -1.7321    0.0000    0.0000 O   0  0  0  0  0  0  0  0  0  0  0  0
    0.0000    0.0000    0.0000 O   0  0  0  0  0  0  0  0  0  0  0  0
  1  2  1  0  0  0  0
  2  3  2  0  0  0  0
  2  4  1  0  0  0  0
  4  5  1  0  0  0  0
  5  6  1  0  0  0  0
  5 11  1  0  0  0  0
  6  7  1  0  0  0  0
  7  8  1  0  0  0  0
  8  9  1  0  0  0  0
  9 10  1  0  0  0  0
 11 12  1  0  0  0  0
 11 13  2  0  0  0  0
M  END
>  <Supplier>
www.ambinter.com

>  <Ambinter_reference>
Amb35818967

>  <MW>
205.275

$$$$
Amb35823511
 OpenBabel08272101412D

 14 13  0  0  1  0  0  0  0  0999 V2000
    3.8660   -0.7679    0.0000 C   0  0  0  0  0  0  0  0  0  0  0  0
    3.8660    0.2321    0.0000 C   0  0  0  0  0  0  0  0  0  0  0  0
    4.7321    0.7321    0.0000 O   0  0  0  0  0  0  0  0  0  0  0  0
    3.0000    0.7321    0.0000 N   0  0  0  0  0  0  0  0  0  0  0  0
    3.0000    1.7321    0.0000 C   0  0  1  0  0  0  0  0  0  0  0  0
    4.0000    1.7321    0.0000 H   0  0  0  0  0  0  0  0  0  0  0  0
    3.0000    2.7321    0.0000 C   0  0  0  0  0  0  0  0  0  0  0  0
    3.8660    3.2321    0.0000 S   0  0  0  0  0  0  0  0  0  0  0  0
    2.0000    1.7321    0.0000 C   0  0  0  0  0  0  0  0  0  0  0  0
    1.5000    2.5981    0.0000 O   0  0  0  0  0  0  0  0  0  0  0  0
    1.5000    0.8660    0.0000 O   0  0  0  0  0  0  0  0  0  0  0  0
    0.5000    0.8660    0.0000 C   0  0  0  0  0  0  0  0  0  0  0  0
   -0.0000    1.7321    0.0000 C   0  0  0  0  0  0  0  0  0  0  0  0
    0.0000    0.0000    0.0000 C   0  0  0  0  0  0  0  0  0  0  0  0
  1  2  1  0  0  0  0
  2  3  2  0  0  0  0
  2  4  1  0  0  0  0
  4  5  1  0  0  0  0
  5  6  1  1  0  0  0
  5  7  1  0  0  0  0
  5  9  1  0  0  0  0
  7  8  1  0  0  0  0
  9 10  2  0  0  0  0
  9 11  1  0  0  0  0
 11 12  1  0  0  0  0
 12 13  1  0  0  0  0
 12 14  1  0  0  0  0
M  END
>  <Supplier>
www.ambinter.com

>  <Ambinter_reference>
Amb35823511

>  <MW>
205.275

$$$$
Amb35846306
 OpenBabel08272101412D

 10 10  0  0  1  0  0  0  0  0999 V2000
    2.5981   -0.5000    0.0000 O   0  0  0  0  0  0  0  0  0  0  0  0
    1.7321    0.0000    0.0000 C   0  0  0  0  0  0  0  0  0  0  0  0
    1.7321    1.0000    0.0000 O   0  0  0  0  0  0  0  0  0  0  0  0
    0.8660   -0.5000    0.0000 C   0  0  3  0  0  0  0  0  0  0  0  0
    0.8660   -1.5000    0.0000 C   0  0  0  0  0  0  0  0  0  0  0  0
    0.0000   -2.0000    0.0000 S   0  0  0  0  0  0  0  0  0  0  0  0
   -0.8660   -1.5000    0.0000 C   0  0  0  0  0  0  0  0  0  0  0  0
   -0.8660   -0.5000    0.0000 C   0  0  0  0  0  0  0  0  0  0  0  0
   -1.7321   -0.0000    0.0000 O   0  0  0  0  0  0  0  0  0  0  0  0
   -0.0000   -0.0000    0.0000 N   0  0  0  0  0  0  0  0  0  0  0  0
  1  2  1  0  0  0  0
  2  3  2  0  0  0  0
  2  4  1  0  0  0  0
  4 10  1  0  0  0  0
  4  5  1  0  0  0  0
  5  6  1  0  0  0  0
  6  7  1  0  0  0  0
  7  8  1  0  0  0  0
  8  9  2  0  0  0  0
  8 10  1  0  0  0  0
M  END
>  <Supplier>
www.ambinter.com

>  <Ambinter_reference>
Amb35846306

>  <MW>
161.179

$$$$

