Amb17616251
 OpenBabel08272102022D

 23 25  0  0  1  0  0  0  0  0999 V2000
    1.3214   -4.2025    0.0000 O   0  0  0  0  0  0  0  0  0  0  0  0
    0.8373   -3.3701    0.0000 C   0  0  0  0  0  0  0  0  0  0  0  0
    0.8343   -2.4072    0.0000 C   0  0  1  0  0  0  0  0  0  0  0  0
    1.7238   -2.9207    0.0000 H   0  0  0  0  0  0  0  0  0  0  0  0
    1.6748   -1.9150    0.0000 O   0  0  0  0  0  0  0  0  0  0  0  0
    1.6681   -0.9631    0.0000 C   0  0  2  0  0  0  0  0  0  0  0  0
    2.5557   -0.4464    0.0000 H   0  0  0  0  0  0  0  0  0  0  0  0
    0.8342   -0.4816    0.0000 C   0  0  3  0  0  0  0  0  0  0  0  0
    0.0004   -1.9257    0.0000 C   0  0  1  0  0  0  0  0  0  0  0  0
   -0.5131   -2.8151    0.0000 H   0  0  0  0  0  0  0  0  0  0  0  0
   -0.8337   -1.4441    0.0000 O   0  0  0  0  0  0  0  0  0  0  0  0
   -0.8404   -0.4922    0.0000 C   0  0  0  0  0  0  0  0  0  0  0  0
    0.0000    0.0000    0.0000 O   0  0  0  0  0  0  0  0  0  0  0  0
   -1.7299    0.0213    0.0000 C   0  0  0  0  0  0  0  0  0  0  0  0
   -0.8477    0.5348    0.0000 C   0  0  0  0  0  0  0  0  0  0  0  0
    2.4925   -1.4390    0.0000 N   0  0  0  0  0  0  0  0  0  0  0  0
    3.1656   -0.7659    0.0000 C   0  0  0  0  0  0  0  0  0  0  0  0
    4.0138   -1.1981    0.0000 N   0  0  0  0  0  0  0  0  0  0  0  0
    3.8649   -2.1383    0.0000 C   0  0  0  0  0  0  0  0  0  0  0  0
    2.9247   -2.2872    0.0000 N   0  0  0  0  0  0  0  0  0  0  0  0
    4.5380   -2.8114    0.0000 C   0  0  0  0  0  0  0  0  0  0  0  0
    4.2916   -3.7309    0.0000 O   0  0  0  0  0  0  0  0  0  0  0  0
    5.4575   -2.5650    0.0000 N   0  0  0  0  0  0  0  0  0  0  0  0
  1  2  1  0  0  0  0
  2  3  1  0  0  0  0
  3  4  1  1  0  0  0
  3  9  1  0  0  0  0
  3  5  1  0  0  0  0
  5  6  1  0  0  0  0
  6  7  1  1  0  0  0
  6  8  1  0  0  0  0
  6 16  1  0  0  0  0
  8 13  1  0  0  0  0
  8  9  1  0  0  0  0
  9 10  1  1  0  0  0
  9 11  1  0  0  0  0
 11 12  1  0  0  0  0
 12 13  1  0  0  0  0
 12 14  1  0  0  0  0
 12 15  1  0  0  0  0
 16 20  1  0  0  0  0
 16 17  1  0  0  0  0
 17 18  2  0  0  0  0
 18 19  1  0  0  0  0
 19 20  2  0  0  0  0
 19 21  1  0  0  0  0
 21 22  2  0  0  0  0
 21 23  1  0  0  0  0
M  END
>  <Supplier>
www.ambinter.com

>  <Ambinter_reference>
Amb17616251

>  <MW>
284.269

$$$$
Amb17616257
 OpenBabel08272102022D

 23 25  0  0  1  0  0  0  0  0999 V2000
    1.3214   -4.2025    0.0000 O   0  0  0  0  0  0  0  0  0  0  0  0
    0.8373   -3.3701    0.0000 C   0  0  0  0  0  0  0  0  0  0  0  0
    0.8343   -2.4072    0.0000 C   0  0  1  0  0  0  0  0  0  0  0  0
    1.7238   -2.9207    0.0000 H   0  0  0  0  0  0  0  0  0  0  0  0
    1.6748   -1.9150    0.0000 O   0  0  0  0  0  0  0  0  0  0  0  0
    1.6681   -0.9631    0.0000 C   0  0  1  0  0  0  0  0  0  0  0  0
    2.5557   -0.4464    0.0000 H   0  0  0  0  0  0  0  0  0  0  0  0
    0.8342   -0.4816    0.0000 C   0  0  3  0  0  0  0  0  0  0  0  0
    0.0004   -1.9257    0.0000 C   0  0  1  0  0  0  0  0  0  0  0  0
   -0.5131   -2.8151    0.0000 H   0  0  0  0  0  0  0  0  0  0  0  0
   -0.8337   -1.4441    0.0000 O   0  0  0  0  0  0  0  0  0  0  0  0
   -0.8404   -0.4922    0.0000 C   0  0  0  0  0  0  0  0  0  0  0  0
    0.0000    0.0000    0.0000 O   0  0  0  0  0  0  0  0  0  0  0  0
   -1.7299    0.0213    0.0000 C   0  0  0  0  0  0  0  0  0  0  0  0
   -0.8477    0.5348    0.0000 C   0  0  0  0  0  0  0  0  0  0  0  0
    2.4925   -1.4390    0.0000 N   0  0  0  0  0  0  0  0  0  0  0  0
    3.1656   -0.7659    0.0000 C   0  0  0  0  0  0  0  0  0  0  0  0
    4.0138   -1.1981    0.0000 N   0  0  0  0  0  0  0  0  0  0  0  0
    3.8649   -2.1383    0.0000 C   0  0  0  0  0  0  0  0  0  0  0  0
    2.9247   -2.2872    0.0000 N   0  0  0  0  0  0  0  0  0  0  0  0
    4.5380   -2.8114    0.0000 C   0  0  0  0  0  0  0  0  0  0  0  0
    4.2916   -3.7309    0.0000 O   0  0  0  0  0  0  0  0  0  0  0  0
    5.4575   -2.5650    0.0000 N   0  0  0  0  0  0  0  0  0  0  0  0
  1  2  1  0  0  0  0
  2  3  1  0  0  0  0
  3  4  1  1  0  0  0
  3  9  1  0  0  0  0
  3  5  1  0  0  0  0
  5  6  1  0  0  0  0
  6  7  1  6  0  0  0
  6  8  1  0  0  0  0
  6 16  1  0  0  0  0
  8 13  1  0  0  0  0
  8  9  1  0  0  0  0
  9 10  1  1  0  0  0
  9 11  1  0  0  0  0
 11 12  1  0  0  0  0
 12 13  1  0  0  0  0
 12 14  1  0  0  0  0
 12 15  1  0  0  0  0
 16 20  1  0  0  0  0
 16 17  1  0  0  0  0
 17 18  2  0  0  0  0
 18 19  1  0  0  0  0
 19 20  2  0  0  0  0
 19 21  1  0  0  0  0
 21 22  2  0  0  0  0
 21 23  1  0  0  0  0
M  END
>  <Supplier>
www.ambinter.com

>  <Ambinter_reference>
Amb17616257

>  <MW>
284.269

$$$$
Amb17616284
 OpenBabel08272102022D

 20 21  0  0  1  0  0  0  0  0999 V2000
    4.3764   -2.5023    0.0000 O   0  0  0  0  0  0  0  0  0  0  0  0
    4.0180   -1.5687    0.0000 C   0  0  0  0  0  0  0  0  0  0  0  0
    3.0303   -1.4123    0.0000 C   0  0  1  0  0  0  0  0  0  0  0  0
    2.6805   -2.3491    0.0000 H   0  0  0  0  0  0  0  0  0  0  0  0
    2.0303   -1.4123    0.0000 O   0  0  0  0  0  0  0  0  0  0  0  0
    1.7213   -0.4612    0.0000 C   0  0  2  0  0  0  0  0  0  0  0  0
    1.0522    0.2819    0.0000 H   0  0  0  0  0  0  0  0  0  0  0  0
    2.5303    0.1266    0.0000 C   0  0  3  0  0  0  0  0  0  0  0  0
    3.3393   -0.4612    0.0000 C   0  0  1  0  0  0  0  0  0  0  0  0
    4.3175   -0.6691    0.0000 H   0  0  0  0  0  0  0  0  0  0  0  0
    4.0085    0.2819    0.0000 O   0  0  0  0  0  0  0  0  0  0  0  0
    2.5303    1.1266    0.0000 O   0  0  0  0  0  0  0  0  0  0  0  0
    0.7431   -0.6691    0.0000 N   0  0  0  0  0  0  0  0  0  0  0  0
    0.3364   -1.5827    0.0000 N   0  0  0  0  0  0  0  0  0  0  0  0
   -0.6581   -1.4781    0.0000 C   0  0  0  0  0  0  0  0  0  0  0  0
   -0.8660   -0.5000    0.0000 N   0  0  0  0  0  0  0  0  0  0  0  0
   -0.0000   -0.0000    0.0000 C   0  0  0  0  0  0  0  0  0  0  0  0
    0.1045    0.9945    0.0000 C   0  0  0  0  0  0  0  0  0  0  0  0
    1.0181    1.4013    0.0000 O   0  0  0  0  0  0  0  0  0  0  0  0
   -0.7045    1.5823    0.0000 N   0  0  0  0  0  0  0  0  0  0  0  0
  1  2  1  0  0  0  0
  2  3  1  0  0  0  0
  3  4  1  6  0  0  0
  3  9  1  0  0  0  0
  3  5  1  0  0  0  0
  5  6  1  0  0  0  0
  6  7  1  6  0  0  0
  6  8  1  0  0  0  0
  6 13  1  0  0  0  0
  8  9  1  0  0  0  0
  8 12  1  0  0  0  0
  9 10  1  6  0  0  0
  9 11  1  0  0  0  0
 13 17  1  0  0  0  0
 13 14  1  0  0  0  0
 14 15  2  0  0  0  0
 15 16  1  0  0  0  0
 16 17  2  0  0  0  0
 17 18  1  0  0  0  0
 18 19  2  0  0  0  0
 18 20  1  0  0  0  0
M  END
>  <Supplier>
www.ambinter.com

>  <Ambinter_reference>
Amb17616284

>  <MW>
244.205

$$$$
Amb17619923
 OpenBabel08272102022D

 20 21  0  0  1  0  0  0  0  0999 V2000
    4.3764   -2.5023    0.0000 O   0  0  0  0  0  0  0  0  0  0  0  0
    4.0180   -1.5687    0.0000 C   0  0  0  0  0  0  0  0  0  0  0  0
    3.0303   -1.4123    0.0000 C   0  0  1  0  0  0  0  0  0  0  0  0
    2.6805   -2.3491    0.0000 H   0  0  0  0  0  0  0  0  0  0  0  0
    2.0303   -1.4123    0.0000 O   0  0  0  0  0  0  0  0  0  0  0  0
    1.7213   -0.4612    0.0000 C   0  0  1  0  0  0  0  0  0  0  0  0
    1.0522    0.2819    0.0000 H   0  0  0  0  0  0  0  0  0  0  0  0
    2.5303    0.1266    0.0000 C   0  0  3  0  0  0  0  0  0  0  0  0
    3.3393   -0.4612    0.0000 C   0  0  1  0  0  0  0  0  0  0  0  0
    4.3175   -0.6691    0.0000 H   0  0  0  0  0  0  0  0  0  0  0  0
    4.0085    0.2819    0.0000 O   0  0  0  0  0  0  0  0  0  0  0  0
    2.5303    1.1266    0.0000 O   0  0  0  0  0  0  0  0  0  0  0  0
    0.7431   -0.6691    0.0000 N   0  0  0  0  0  0  0  0  0  0  0  0
    0.3364   -1.5827    0.0000 C   0  0  0  0  0  0  0  0  0  0  0  0
   -0.6581   -1.4781    0.0000 N   0  0  0  0  0  0  0  0  0  0  0  0
   -0.8660   -0.5000    0.0000 C   0  0  0  0  0  0  0  0  0  0  0  0
   -0.0000   -0.0000    0.0000 N   0  0  0  0  0  0  0  0  0  0  0  0
   -1.7796   -0.0933    0.0000 C   0  0  0  0  0  0  0  0  0  0  0  0
   -1.8841    0.9013    0.0000 O   0  0  0  0  0  0  0  0  0  0  0  0
   -2.5886   -0.6810    0.0000 N   0  0  0  0  0  0  0  0  0  0  0  0
  1  2  1  0  0  0  0
  2  3  1  0  0  0  0
  3  4  1  6  0  0  0
  3  9  1  0  0  0  0
  3  5  1  0  0  0  0
  5  6  1  0  0  0  0
  6  7  1  1  0  0  0
  6  8  1  0  0  0  0
  6 13  1  0  0  0  0
  8  9  1  0  0  0  0
  8 12  1  0  0  0  0
  9 10  1  6  0  0  0
  9 11  1  0  0  0  0
 13 17  1  0  0  0  0
 13 14  1  0  0  0  0
 14 15  2  0  0  0  0
 15 16  1  0  0  0  0
 16 17  2  0  0  0  0
 16 18  1  0  0  0  0
 18 19  2  0  0  0  0
 18 20  1  0  0  0  0
M  END
>  <Supplier>
www.ambinter.com

>  <Ambinter_reference>
Amb17619923

>  <MW>
244.205

$$$$
Amb17619924
 OpenBabel08272102022D

 20 21  0  0  1  0  0  0  0  0999 V2000
    4.3764   -2.5023    0.0000 O   0  0  0  0  0  0  0  0  0  0  0  0
    4.0180   -1.5687    0.0000 C   0  0  0  0  0  0  0  0  0  0  0  0
    3.0303   -1.4123    0.0000 C   0  0  1  0  0  0  0  0  0  0  0  0
    2.6805   -2.3491    0.0000 H   0  0  0  0  0  0  0  0  0  0  0  0
    2.0303   -1.4123    0.0000 O   0  0  0  0  0  0  0  0  0  0  0  0
    1.7213   -0.4612    0.0000 C   0  0  2  0  0  0  0  0  0  0  0  0
    1.0522    0.2819    0.0000 H   0  0  0  0  0  0  0  0  0  0  0  0
    2.5303    0.1266    0.0000 C   0  0  2  0  0  0  0  0  0  0  0  0
    3.0303    0.9926    0.0000 H   0  0  0  0  0  0  0  0  0  0  0  0
    3.3393   -0.4612    0.0000 C   0  0  3  0  0  0  0  0  0  0  0  0
    4.2904   -0.1522    0.0000 O   0  0  0  0  0  0  0  0  0  0  0  0
    2.0303    0.9926    0.0000 O   0  0  0  0  0  0  0  0  0  0  0  0
    0.7431   -0.6691    0.0000 N   0  0  0  0  0  0  0  0  0  0  0  0
    0.3364   -1.5827    0.0000 C   0  0  0  0  0  0  0  0  0  0  0  0
   -0.6581   -1.4781    0.0000 N   0  0  0  0  0  0  0  0  0  0  0  0
   -0.8660   -0.5000    0.0000 C   0  0  0  0  0  0  0  0  0  0  0  0
   -0.0000   -0.0000    0.0000 N   0  0  0  0  0  0  0  0  0  0  0  0
   -1.7796   -0.0933    0.0000 C   0  0  0  0  0  0  0  0  0  0  0  0
   -1.8841    0.9013    0.0000 O   0  0  0  0  0  0  0  0  0  0  0  0
   -2.5886   -0.6810    0.0000 N   0  0  0  0  0  0  0  0  0  0  0  0
  1  2  1  0  0  0  0
  2  3  1  0  0  0  0
  3  4  1  6  0  0  0
  3 10  1  0  0  0  0
  3  5  1  0  0  0  0
  5  6  1  0  0  0  0
  6  7  1  6  0  0  0
  6  8  1  0  0  0  0
  6 13  1  0  0  0  0
  8  9  1  6  0  0  0
  8 10  1  0  0  0  0
  8 12  1  0  0  0  0
 10 11  1  0  0  0  0
 13 17  1  0  0  0  0
 13 14  1  0  0  0  0
 14 15  2  0  0  0  0
 15 16  1  0  0  0  0
 16 17  2  0  0  0  0
 16 18  1  0  0  0  0
 18 19  2  0  0  0  0
 18 20  1  0  0  0  0
M  END
>  <Supplier>
www.ambinter.com

>  <Ambinter_reference>
Amb17619924

>  <MW>
244.205

$$$$
Amb17619925
 OpenBabel08272102022D

 23 24  0  0  1  0  0  0  0  0999 V2000
    4.6473   -0.7916    0.0000 O   0  0  0  0  0  0  0  0  0  0  0  0
    4.0180   -1.5687    0.0000 C   0  0  0  0  0  0  0  0  0  0  0  0
    3.8616   -2.5564    0.0000 H   0  0  0  0  0  0  0  0  0  0  0  0
    4.7951   -2.1980    0.0000 H   0  0  0  0  0  0  0  0  0  0  0  0
    3.0303   -1.4123    0.0000 C   0  0  1  0  0  0  0  0  0  0  0  0
    2.6805   -2.3491    0.0000 H   0  0  0  0  0  0  0  0  0  0  0  0
    2.0303   -1.4123    0.0000 O   0  0  0  0  0  0  0  0  0  0  0  0
    1.7213   -0.4612    0.0000 C   0  0  2  0  0  0  0  0  0  0  0  0
    1.0522    0.2819    0.0000 H   0  0  0  0  0  0  0  0  0  0  0  0
    2.5303    0.1266    0.0000 C   0  0  2  0  0  0  0  0  0  0  0  0
    3.0303    0.9926    0.0000 H   0  0  0  0  0  0  0  0  0  0  0  0
    3.3393   -0.4612    0.0000 C   0  0  3  0  0  0  0  0  0  0  0  0
    4.3175   -0.6691    0.0000 H   0  0  0  0  0  0  0  0  0  0  0  0
    4.0085    0.2819    0.0000 O   0  0  0  0  0  0  0  0  0  0  0  0
    2.0303    0.9926    0.0000 O   0  0  0  0  0  0  0  0  0  0  0  0
    0.7431   -0.6691    0.0000 N   0  0  0  0  0  0  0  0  0  0  0  0
    0.3364   -1.5827    0.0000 C   0  0  0  0  0  0  0  0  0  0  0  0
   -0.6581   -1.4781    0.0000 N   0  0  0  0  0  0  0  0  0  0  0  0
   -0.8660   -0.5000    0.0000 C   0  0  0  0  0  0  0  0  0  0  0  0
    0.0000   -0.0000    0.0000 N   0  0  0  0  0  0  0  0  0  0  0  0
   -1.7796   -0.0933    0.0000 C   0  0  0  0  0  0  0  0  0  0  0  0
   -1.8841    0.9013    0.0000 O   0  0  0  0  0  0  0  0  0  0  0  0
   -2.5886   -0.6810    0.0000 N   0  0  0  0  0  0  0  0  0  0  0  0
  1  2  1  0  0  0  0
  2  3  1  0  0  0  0
  2  4  1  0  0  0  0
  2  5  1  0  0  0  0
  5  6  1  6  0  0  0
  5 12  1  0  0  0  0
  5  7  1  0  0  0  0
  7  8  1  0  0  0  0
  8  9  1  6  0  0  0
  8 10  1  0  0  0  0
  8 16  1  0  0  0  0
 10 11  1  6  0  0  0
 10 12  1  0  0  0  0
 10 15  1  0  0  0  0
 12 13  1  0  0  0  0
 12 14  1  0  0  0  0
 16 20  1  0  0  0  0
 16 17  1  0  0  0  0
 17 18  2  0  0  0  0
 18 19  1  0  0  0  0
 19 20  2  0  0  0  0
 19 21  1  0  0  0  0
 21 22  2  0  0  0  0
 21 23  1  0  0  0  0
M  ISO  5   2  13   5  13   8  13  10  13  12  13
M  END
>  <Supplier>
www.ambinter.com

>  <Ambinter_reference>
Amb17619925

>  <MW>
249.168

$$$$
Amb17619926
 OpenBabel08272102022D

 25 26  0  0  1  0  0  0  0  0999 V2000
   -2.7788    1.6261    0.0000 O   0  0  0  0  0  0  0  0  0  0  0  0
   -3.0878    0.6750    0.0000 C   0  0  3  0  0  0  0  0  0  0  0  0
   -2.5000   -0.1340    0.0000 C   0  0  3  0  0  0  0  0  0  0  0  0
   -1.5000   -0.1340    0.0000 C   0  0  0  0  0  0  0  0  0  0  0  0
   -1.0000   -1.0000    0.0000 O   0  0  0  0  0  0  0  0  0  0  0  0
    0.0000   -1.0000    0.0000 P   0  0  3  0  0  0  0  0  0  0  0  0
   -0.0000   -2.0000    0.0000 O   0  0  0  0  0  0  0  0  0  0  0  0
    1.0000   -1.0000    0.0000 O   0  0  0  0  0  0  0  0  0  0  0  0
    2.0000   -1.0000    0.0000 P   0  0  0  0  0  0  0  0  0  0  0  0
    2.0000   -2.0000    0.0000 O   0  0  0  0  0  0  0  0  0  0  0  0
    3.0000   -1.0000    0.0000 O   0  0  0  0  0  0  0  0  0  0  0  0
    2.0000   -0.0000    0.0000 O   0  0  0  0  0  0  0  0  0  0  0  0
    0.0000   -0.0000    0.0000 O   0  0  0  0  0  0  0  0  0  0  0  0
   -3.0878   -0.9430    0.0000 O   0  0  0  0  0  0  0  0  0  0  0  0
   -4.0388   -0.6340    0.0000 C   0  0  3  0  0  0  0  0  0  0  0  0
   -4.0388    0.3660    0.0000 C   0  0  3  0  0  0  0  0  0  0  0  0
   -4.8479    0.9538    0.0000 O   0  0  0  0  0  0  0  0  0  0  0  0
   -4.8479   -1.2218    0.0000 N   0  0  0  0  0  0  0  0  0  0  0  0
   -4.8479   -2.2218    0.0000 C   0  0  0  0  0  0  0  0  0  0  0  0
   -5.7989   -2.5308    0.0000 N   0  0  0  0  0  0  0  0  0  0  0  0
   -6.3867   -1.7218    0.0000 C   0  0  0  0  0  0  0  0  0  0  0  0
   -5.7989   -0.9127    0.0000 N   0  0  0  0  0  0  0  0  0  0  0  0
   -7.3867   -1.7218    0.0000 C   0  0  0  0  0  0  0  0  0  0  0  0
   -7.8867   -0.8557    0.0000 O   0  0  0  0  0  0  0  0  0  0  0  0
   -7.8867   -2.5878    0.0000 N   0  0  0  0  0  0  0  0  0  0  0  0
  1  2  1  0  0  0  0
  2 16  1  0  0  0  0
  2  3  1  0  0  0  0
  3  4  1  0  0  0  0
  3 14  1  0  0  0  0
  4  5  1  0  0  0  0
  5  6  1  0  0  0  0
  6  7  2  0  0  0  0
  6  8  1  0  0  0  0
  6 13  1  0  0  0  0
  8  9  1  0  0  0  0
  9 10  2  0  0  0  0
  9 11  1  0  0  0  0
  9 12  1  0  0  0  0
 14 15  1  0  0  0  0
 15 16  1  0  0  0  0
 15 18  1  0  0  0  0
 16 17  1  0  0  0  0
 18 22  1  0  0  0  0
 18 19  1  0  0  0  0
 19 20  2  0  0  0  0
 20 21  1  0  0  0  0
 21 22  2  0  0  0  0
 21 23  1  0  0  0  0
 23 24  2  0  0  0  0
 23 25  1  0  0  0  0
M  END
>  <Supplier>
www.ambinter.com

>  <Ambinter_reference>
Amb17619926

>  <MW>
404.164

$$$$
Amb17619927
 OpenBabel08272102022D

 23 22  0  0  1  0  0  0  0  0999 V2000
    3.5388   -1.2782    0.0000 O   0  0  0  0  0  0  0  0  0  0  0  0
    4.3479   -1.8660    0.0000 C   0  0  3  0  0  0  0  0  0  0  0  0
    5.2989   -1.5570    0.0000 C   0  0  3  0  0  0  0  0  0  0  0  0
    5.6079   -0.6060    0.0000 O   0  0  0  0  0  0  0  0  0  0  0  0
    5.8867   -2.3660    0.0000 C   0  0  3  0  0  0  0  0  0  0  0  0
    5.2989   -3.1750    0.0000 O   0  0  0  0  0  0  0  0  0  0  0  0
    4.3479   -2.8660    0.0000 C   0  0  3  0  0  0  0  0  0  0  0  0
    3.5388   -3.4538    0.0000 N   0  0  0  0  0  0  0  0  0  0  0  0
    3.5388   -4.4538    0.0000 C   0  0  0  0  0  0  0  0  0  0  0  0
    2.5878   -4.7628    0.0000 N   0  0  0  0  0  0  0  0  0  0  0  0
    2.0000   -3.9538    0.0000 C   0  0  0  0  0  0  0  0  0  0  0  0
    2.5878   -3.1448    0.0000 N   0  0  0  0  0  0  0  0  0  0  0  0
    1.0000   -3.9538    0.0000 C   0  0  0  0  0  0  0  0  0  0  0  0
    0.5000   -3.0878    0.0000 O   0  0  0  0  0  0  0  0  0  0  0  0
    0.5000   -4.8198    0.0000 N   0  0  0  0  0  0  0  0  0  0  0  0
    6.8867   -2.3660    0.0000 C   0  0  0  0  0  0  0  0  0  0  0  0
    7.3867   -1.5000    0.0000 O   0  0  0  0  0  0  0  0  0  0  0  0
    8.3867   -1.5000    0.0000 P   0  0  0  0  0  0  0  0  0  0  0  0
    8.3867   -2.5000    0.0000 O   0  0  0  0  0  0  0  0  0  0  0  0
    9.3867   -1.5000    0.0000 O   0  5  0  0  0  0  0  0  0  0  0  0
    8.3867   -0.5000    0.0000 O   0  5  0  0  0  0  0  0  0  0  0  0
   -1.9492   -1.9702    0.0000 Li  0  3  0  0  0 15  0  0  0  0  0  0
    0.5000   -5.8198    0.0000 Li  0  3  0  0  0 15  0  0  0  0  0  0
  1  2  1  0  0  0  0
  2  7  1  0  0  0  0
  2  3  1  0  0  0  0
  3  4  1  0  0  0  0
  3  5  1  0  0  0  0
  5  6  1  0  0  0  0
  5 16  1  0  0  0  0
  6  7  1  0  0  0  0
  7  8  1  0  0  0  0
  8 12  1  0  0  0  0
  8  9  1  0  0  0  0
  9 10  2  0  0  0  0
 10 11  1  0  0  0  0
 11 12  2  0  0  0  0
 11 13  1  0  0  0  0
 13 14  2  0  0  0  0
 13 15  1  0  0  0  0
 16 17  1  0  0  0  0
 17 18  1  0  0  0  0
 18 19  2  0  0  0  0
 18 20  1  0  0  0  0
 18 21  1  0  0  0  0
M  CHG  4  20  -1  21  -1  22   1  23   1
M  END
>  <Supplier>
www.ambinter.com

>  <Ambinter_reference>
Amb17619927

>  <MW>
336.051

$$$$
Amb17619928
 OpenBabel08272102022D

 29 30  0  0  1  0  0  0  0  0999 V2000
   -2.7788    1.6261    0.0000 O   0  0  0  0  0  0  0  0  0  0  0  0
   -3.0878    0.6750    0.0000 C   0  0  3  0  0  0  0  0  0  0  0  0
   -2.5000   -0.1340    0.0000 C   0  0  3  0  0  0  0  0  0  0  0  0
   -1.5000   -0.1340    0.0000 C   0  0  0  0  0  0  0  0  0  0  0  0
   -1.0000   -1.0000    0.0000 O   0  0  0  0  0  0  0  0  0  0  0  0
    0.0000   -1.0000    0.0000 P   0  0  3  0  0  0  0  0  0  0  0  0
    0.0000   -2.0000    0.0000 O   0  0  0  0  0  0  0  0  0  0  0  0
    1.0000   -1.0000    0.0000 O   0  0  0  0  0  0  0  0  0  0  0  0
    2.0000   -1.0000    0.0000 P   0  0  3  0  0  0  0  0  0  0  0  0
    2.0000   -2.0000    0.0000 O   0  0  0  0  0  0  0  0  0  0  0  0
    3.0000   -1.0000    0.0000 O   0  0  0  0  0  0  0  0  0  0  0  0
    4.0000   -1.0000    0.0000 P   0  0  0  0  0  0  0  0  0  0  0  0
    4.0000   -2.0000    0.0000 O   0  0  0  0  0  0  0  0  0  0  0  0
    5.0000   -1.0000    0.0000 O   0  0  0  0  0  0  0  0  0  0  0  0
    4.0000    0.0000    0.0000 O   0  0  0  0  0  0  0  0  0  0  0  0
    2.0000   -0.0000    0.0000 O   0  0  0  0  0  0  0  0  0  0  0  0
    0.0000   -0.0000    0.0000 O   0  0  0  0  0  0  0  0  0  0  0  0
   -3.0878   -0.9430    0.0000 O   0  0  0  0  0  0  0  0  0  0  0  0
   -4.0388   -0.6340    0.0000 C   0  0  3  0  0  0  0  0  0  0  0  0
   -4.0388    0.3660    0.0000 C   0  0  3  0  0  0  0  0  0  0  0  0
   -4.8479    0.9538    0.0000 O   0  0  0  0  0  0  0  0  0  0  0  0
   -4.8479   -1.2218    0.0000 N   0  0  0  0  0  0  0  0  0  0  0  0
   -4.8479   -2.2218    0.0000 C   0  0  0  0  0  0  0  0  0  0  0  0
   -5.7989   -2.5308    0.0000 N   0  0  0  0  0  0  0  0  0  0  0  0
   -6.3867   -1.7218    0.0000 C   0  0  0  0  0  0  0  0  0  0  0  0
   -5.7989   -0.9127    0.0000 N   0  0  0  0  0  0  0  0  0  0  0  0
   -7.3867   -1.7218    0.0000 C   0  0  0  0  0  0  0  0  0  0  0  0
   -7.8867   -0.8557    0.0000 O   0  0  0  0  0  0  0  0  0  0  0  0
   -7.8867   -2.5878    0.0000 N   0  0  0  0  0  0  0  0  0  0  0  0
  1  2  1  0  0  0  0
  2 20  1  0  0  0  0
  2  3  1  0  0  0  0
  3  4  1  0  0  0  0
  3 18  1  0  0  0  0
  4  5  1  0  0  0  0
  5  6  1  0  0  0  0
  6  7  2  0  0  0  0
  6  8  1  0  0  0  0
  6 17  1  0  0  0  0
  8  9  1  0  0  0  0
  9 10  2  0  0  0  0
  9 11  1  0  0  0  0
  9 16  1  0  0  0  0
 11 12  1  0  0  0  0
 12 13  2  0  0  0  0
 12 14  1  0  0  0  0
 12 15  1  0  0  0  0
 18 19  1  0  0  0  0
 19 20  1  0  0  0  0
 19 22  1  0  0  0  0
 20 21  1  0  0  0  0
 22 26  1  0  0  0  0
 22 23  1  0  0  0  0
 23 24  2  0  0  0  0
 24 25  1  0  0  0  0
 25 26  2  0  0  0  0
 25 27  1  0  0  0  0
 27 28  2  0  0  0  0
 27 29  1  0  0  0  0
M  END
>  <Supplier>
www.ambinter.com

>  <Ambinter_reference>
Amb17619928

>  <MW>
484.144

$$$$
Amb17619932
 OpenBabel08272102022D

 18 19  0  0  1  0  0  0  0  0999 V2000
   -3.1463    3.6247    0.0000 O   0  0  0  0  0  0  0  0  0  0  0  0
   -3.4553    2.6736    0.0000 C   0  0  0  0  0  0  0  0  0  0  0  0
   -2.7861    1.9305    0.0000 C   0  0  3  0  0  0  0  0  0  0  0  0
   -1.7916    2.0350    0.0000 O   0  0  0  0  0  0  0  0  0  0  0  0
   -1.3849    1.1215    0.0000 C   0  0  3  0  0  0  0  0  0  0  0  0
   -2.1280    0.4523    0.0000 C   0  0  3  0  0  0  0  0  0  0  0  0
   -2.9941    0.9523    0.0000 C   0  0  3  0  0  0  0  0  0  0  0  0
   -3.9076    0.5456    0.0000 O   0  0  0  0  0  0  0  0  0  0  0  0
   -2.0235   -0.5422    0.0000 O   0  0  0  0  0  0  0  0  0  0  0  0
   -0.4067    0.9135    0.0000 N   0  0  0  0  0  0  0  0  0  0  0  0
    0.3364    1.5827    0.0000 C   0  0  0  0  0  0  0  0  0  0  0  0
    1.2024    1.0827    0.0000 N   0  0  0  0  0  0  0  0  0  0  0  0
    0.9945    0.1045    0.0000 C   0  0  0  0  0  0  0  0  0  0  0  0
    0.0000   -0.0000    0.0000 N   0  0  0  0  0  0  0  0  0  0  0  0
    1.6637   -0.6386    0.0000 C   0  0  0  0  0  0  0  0  0  0  0  0
    1.3546   -1.5897    0.0000 O   0  0  0  0  0  0  0  0  0  0  0  0
    2.6418   -0.4307    0.0000 O   0  0  0  0  0  0  0  0  0  0  0  0
    3.3109   -1.1738    0.0000 C   0  0  0  0  0  0  0  0  0  0  0  0
  1  2  1  0  0  0  0
  2  3  1  0  0  0  0
  3  7  1  0  0  0  0
  3  4  1  0  0  0  0
  4  5  1  0  0  0  0
  5  6  1  0  0  0  0
  5 10  1  0  0  0  0
  6  7  1  0  0  0  0
  6  9  1  0  0  0  0
  7  8  1  0  0  0  0
 10 14  1  0  0  0  0
 10 11  1  0  0  0  0
 11 12  2  0  0  0  0
 12 13  1  0  0  0  0
 13 14  2  0  0  0  0
 13 15  1  0  0  0  0
 15 16  2  0  0  0  0
 15 17  1  0  0  0  0
 17 18  1  0  0  0  0
M  END
>  <Supplier>
www.ambinter.com

>  <Ambinter_reference>
Amb17619932

>  <MW>
259.216

$$$$
Amb17621280
 OpenBabel08272102022D

 21 21  0  0  1  0  0  0  0  0999 V2000
    7.4650   -3.9949    0.0000 O   0  0  0  0  0  0  0  0  0  0  0  0
    7.1066   -3.0613    0.0000 C   0  0  0  0  0  0  0  0  0  0  0  0
    6.1189   -2.9049    0.0000 C   0  0  1  0  0  0  0  0  0  0  0  0
    5.7691   -3.8417    0.0000 H   0  0  0  0  0  0  0  0  0  0  0  0
    5.1189   -2.9049    0.0000 O   0  0  0  0  0  0  0  0  0  0  0  0
    4.8099   -1.9538    0.0000 C   0  0  2  0  0  0  0  0  0  0  0  0
    4.1407   -1.2107    0.0000 H   0  0  0  0  0  0  0  0  0  0  0  0
    5.6189   -1.3660    0.0000 C   0  0  2  0  0  0  0  0  0  0  0  0
    6.1189   -0.5000    0.0000 H   0  0  0  0  0  0  0  0  0  0  0  0
    6.4279   -1.9538    0.0000 C   0  0  3  0  0  0  0  0  0  0  0  0
    7.3790   -1.6448    0.0000 O   0  0  0  0  0  0  0  0  0  0  0  0
    5.1189   -0.5000    0.0000 O   0  0  0  0  0  0  0  0  0  0  0  0
    3.8317   -2.1617    0.0000 N   0  0  0  0  0  0  0  0  0  0  0  0
    3.4250   -3.0753    0.0000 C   0  0  0  0  0  0  0  0  0  0  0  0
    2.4305   -2.9707    0.0000 N   0  0  0  0  0  0  0  0  0  0  0  0
    2.2226   -1.9926    0.0000 C   0  0  0  0  0  0  0  0  0  0  0  0
    3.0886   -1.4926    0.0000 N   0  0  0  0  0  0  0  0  0  0  0  0
    1.3090   -1.5859    0.0000 C   0  0  0  0  0  0  0  0  0  0  0  0
    1.2045   -0.5913    0.0000 N   0  0  0  0  0  0  0  0  0  0  0  0
    0.5000   -2.1736    0.0000 N   0  0  0  0  0  0  0  0  0  0  0  0
   -1.8237   -3.0612    0.0000 Cl  0  0  0  0  0  0  0  0  0  0  0  0
  1  2  1  0  0  0  0
  2  3  1  0  0  0  0
  3  4  1  6  0  0  0
  3 10  1  0  0  0  0
  3  5  1  0  0  0  0
  5  6  1  0  0  0  0
  6  7  1  6  0  0  0
  6  8  1  0  0  0  0
  6 13  1  0  0  0  0
  8  9  1  6  0  0  0
  8 10  1  0  0  0  0
  8 12  1  0  0  0  0
 10 11  1  0  0  0  0
 13 17  1  0  0  0  0
 13 14  1  0  0  0  0
 14 15  2  0  0  0  0
 15 16  1  0  0  0  0
 16 17  2  0  0  0  0
 16 18  1  0  0  0  0
 18 19  2  0  0  0  0
 18 20  1  0  0  0  0
M  END
>  <Supplier>
www.ambinter.com

>  <Ambinter_reference>
Amb17621280

>  <MW>
279.681

$$$$
Amb17621281
 OpenBabel08272102022D

 24 24  0  0  1  0  0  0  0  0999 V2000
    7.7359   -2.2842    0.0000 O   0  0  0  0  0  0  0  0  0  0  0  0
    7.1066   -3.0613    0.0000 C   0  0  0  0  0  0  0  0  0  0  0  0
    6.9502   -4.0490    0.0000 H   0  0  0  0  0  0  0  0  0  0  0  0
    7.8837   -3.6906    0.0000 H   0  0  0  0  0  0  0  0  0  0  0  0
    6.1189   -2.9049    0.0000 C   0  0  1  0  0  0  0  0  0  0  0  0
    5.7691   -3.8417    0.0000 H   0  0  0  0  0  0  0  0  0  0  0  0
    5.1189   -2.9049    0.0000 O   0  0  0  0  0  0  0  0  0  0  0  0
    4.8099   -1.9538    0.0000 C   0  0  2  0  0  0  0  0  0  0  0  0
    4.1407   -1.2107    0.0000 H   0  0  0  0  0  0  0  0  0  0  0  0
    5.6189   -1.3660    0.0000 C   0  0  2  0  0  0  0  0  0  0  0  0
    6.1189   -0.5000    0.0000 H   0  0  0  0  0  0  0  0  0  0  0  0
    6.4279   -1.9538    0.0000 C   0  0  3  0  0  0  0  0  0  0  0  0
    7.4061   -2.1617    0.0000 H   0  0  0  0  0  0  0  0  0  0  0  0
    7.0970   -1.2107    0.0000 O   0  0  0  0  0  0  0  0  0  0  0  0
    5.1189   -0.5000    0.0000 O   0  0  0  0  0  0  0  0  0  0  0  0
    3.8317   -2.1617    0.0000 N   0  0  0  0  0  0  0  0  0  0  0  0
    3.4250   -3.0753    0.0000 C   0  0  0  0  0  0  0  0  0  0  0  0
    2.4305   -2.9707    0.0000 N   0  0  0  0  0  0  0  0  0  0  0  0
    2.2226   -1.9926    0.0000 C   0  0  0  0  0  0  0  0  0  0  0  0
    3.0886   -1.4926    0.0000 N   0  0  0  0  0  0  0  0  0  0  0  0
    1.3090   -1.5859    0.0000 C   0  0  0  0  0  0  0  0  0  0  0  0
    1.2045   -0.5913    0.0000 N   0  0  0  0  0  0  0  0  0  0  0  0
    0.5000   -2.1736    0.0000 N   0  0  0  0  0  0  0  0  0  0  0  0
   -1.7097   -2.6850    0.0000 Cl  0  0  0  0  0  0  0  0  0  0  0  0
  1  2  1  0  0  0  0
  2  3  1  0  0  0  0
  2  4  1  0  0  0  0
  2  5  1  0  0  0  0
  5  6  1  6  0  0  0
  5 12  1  0  0  0  0
  5  7  1  0  0  0  0
  7  8  1  0  0  0  0
  8  9  1  6  0  0  0
  8 10  1  0  0  0  0
  8 16  1  0  0  0  0
 10 11  1  6  0  0  0
 10 12  1  0  0  0  0
 10 15  1  0  0  0  0
 12 13  1  0  0  0  0
 12 14  1  0  0  0  0
 16 20  1  0  0  0  0
 16 17  1  0  0  0  0
 17 18  2  0  0  0  0
 18 19  1  0  0  0  0
 19 20  2  0  0  0  0
 19 21  1  0  0  0  0
 21 22  2  0  0  0  0
 21 23  1  0  0  0  0
M  ISO  5   2  13   5  13   8  13  10  13  12  13
M  END
>  <Supplier>
www.ambinter.com

>  <Ambinter_reference>
Amb17621281

>  <MW>
284.644

$$$$
Amb19133813
 OpenBabel08272102022D

 20 21  0  0  1  0  0  0  0  0999 V2000
   -3.8845    1.9658    0.0000 N   0  0  0  0  0  0  0  0  0  0  0  0
   -3.6766    0.9877    0.0000 C   0  0  0  0  0  0  0  0  0  0  0  0
   -4.4197    0.3186    0.0000 O   0  0  0  0  0  0  0  0  0  0  0  0
   -2.7255    0.6787    0.0000 C   0  0  0  0  0  0  0  0  0  0  0  0
   -1.9165    1.2665    0.0000 N   0  0  0  0  0  0  0  0  0  0  0  0
   -1.1075    0.6787    0.0000 N   0  0  0  0  0  0  0  0  0  0  0  0
   -1.4165   -0.2724    0.0000 C   0  0  0  0  0  0  0  0  0  0  0  0
   -2.4165   -0.2724    0.0000 N   0  0  0  0  0  0  0  0  0  0  0  0
   -0.1564    0.9877    0.0000 C   0  0  2  0  0  0  0  0  0  0  0  0
   -0.2701    1.9812    0.0000 H   0  0  0  0  0  0  0  0  0  0  0  0
    0.7346    1.4417    0.0000 O   0  0  0  0  0  0  0  0  0  0  0  0
    1.4417    0.7346    0.0000 C   0  0  1  0  0  0  0  0  0  0  0  0
    2.3753    0.3762    0.0000 H   0  0  0  0  0  0  0  0  0  0  0  0
    2.2188    1.3639    0.0000 C   0  0  0  0  0  0  0  0  0  0  0  0
    3.1524    1.0055    0.0000 O   0  0  0  0  0  0  0  0  0  0  0  0
    0.9877   -0.1564    0.0000 C   0  0  1  0  0  0  0  0  0  0  0  0
    0.9354   -1.1551    0.0000 H   0  0  0  0  0  0  0  0  0  0  0  0
    1.8264   -0.7011    0.0000 O   0  0  0  0  0  0  0  0  0  0  0  0
    0.0000   -0.0000    0.0000 C   0  0  3  0  0  0  0  0  0  0  0  0
   -0.7071   -0.7071    0.0000 O   0  0  0  0  0  0  0  0  0  0  0  0
  1  2  1  0  0  0  0
  2  3  2  0  0  0  0
  2  4  1  0  0  0  0
  4  8  1  0  0  0  0
  4  5  2  0  0  0  0
  5  6  1  0  0  0  0
  6  7  1  0  0  0  0
  6  9  1  0  0  0  0
  7  8  2  0  0  0  0
  9 10  1  1  0  0  0
  9 19  1  0  0  0  0
  9 11  1  0  0  0  0
 11 12  1  0  0  0  0
 12 13  1  6  0  0  0
 12 14  1  0  0  0  0
 12 16  1  0  0  0  0
 14 15  1  0  0  0  0
 16 17  1  6  0  0  0
 16 18  1  0  0  0  0
 16 19  1  0  0  0  0
 19 20  1  0  0  0  0
M  RAD  2   5   2   8   2
M  END
>  <Supplier>
www.ambinter.com

>  <Ambinter_reference>
Amb19133813

>  <MW>
244.205

$$$$
Amb1966618
 OpenBabel08272102022D

 27 28  0  0  1  0  0  0  0  0999 V2000
    1.8232    0.8337    0.0000 O   0  0  0  0  0  0  0  0  0  0  0  0
    2.5303    0.1266    0.0000 C   0  0  2  0  0  0  0  0  0  0  0  0
    3.3640    0.6789    0.0000 H   0  0  0  0  0  0  0  0  0  0  0  0
    3.3393   -0.4612    0.0000 C   0  0  2  0  0  0  0  0  0  0  0  0
    4.3175   -0.6691    0.0000 H   0  0  0  0  0  0  0  0  0  0  0  0
    4.0085    0.2819    0.0000 O   0  0  0  0  0  0  0  0  0  0  0  0
    3.0303   -1.4123    0.0000 C   0  0  2  0  0  0  0  0  0  0  0  0
    3.1348   -2.4068    0.0000 H   0  0  0  0  0  0  0  0  0  0  0  0
    2.0303   -1.4123    0.0000 O   0  0  0  0  0  0  0  0  0  0  0  0
    1.7213   -0.4612    0.0000 C   0  0  1  0  0  0  0  0  0  0  0  0
    1.0522    0.2819    0.0000 H   0  0  0  0  0  0  0  0  0  0  0  0
    0.7431   -0.6691    0.0000 N   0  0  0  0  0  0  0  0  0  0  0  0
    0.3364   -1.5827    0.0000 C   0  0  0  0  0  0  0  0  0  0  0  0
   -0.6581   -1.4781    0.0000 N   0  0  0  0  0  0  0  0  0  0  0  0
   -0.8660   -0.5000    0.0000 C   0  0  0  0  0  0  0  0  0  0  0  0
    0.0000   -0.0000    0.0000 N   0  0  0  0  0  0  0  0  0  0  0  0
   -1.7796   -0.0933    0.0000 C   0  0  0  0  0  0  0  0  0  0  0  0
   -1.8841    0.9013    0.0000 O   0  0  0  0  0  0  0  0  0  0  0  0
   -2.5886   -0.6810    0.0000 N   0  0  0  0  0  0  0  0  0  0  0  0
    3.9439   -1.8190    0.0000 C   0  0  0  0  0  0  0  0  0  0  0  0
    4.0484   -2.8135    0.0000 O   0  0  0  0  0  0  0  0  0  0  0  0
    3.2394   -3.4013    0.0000 C   0  0  0  0  0  0  0  0  0  0  0  0
    2.3258   -2.9946    0.0000 O   0  0  0  0  0  0  0  0  0  0  0  0
    3.3439   -4.3958    0.0000 C   0  0  0  0  0  0  0  0  0  0  0  0
    3.9317   -5.2049    0.0000 C   0  0  0  0  0  0  0  0  0  0  0  0
    4.3384   -4.2913    0.0000 C   0  0  0  0  0  0  0  0  0  0  0  0
    2.5349   -4.9836    0.0000 C   0  0  0  0  0  0  0  0  0  0  0  0
  1  2  1  0  0  0  0
  2  3  1  1  0  0  0
  2 10  1  0  0  0  0
  2  4  1  0  0  0  0
  4  5  1  1  0  0  0
  4  6  1  0  0  0  0
  4  7  1  0  0  0  0
  7  8  1  6  0  0  0
  7  9  1  0  0  0  0
  7 20  1  0  0  0  0
  9 10  1  0  0  0  0
 10 11  1  6  0  0  0
 10 12  1  0  0  0  0
 12 16  1  0  0  0  0
 12 13  1  0  0  0  0
 13 14  2  0  0  0  0
 14 15  1  0  0  0  0
 15 16  2  0  0  0  0
 15 17  1  0  0  0  0
 17 18  2  0  0  0  0
 17 19  1  0  0  0  0
 20 21  1  0  0  0  0
 21 22  1  0  0  0  0
 22 23  2  0  0  0  0
 22 24  1  0  0  0  0
 24 25  1  0  0  0  0
 24 26  1  0  0  0  0
 24 27  1  0  0  0  0
M  END
>  <Supplier>
www.ambinter.com

>  <Ambinter_reference>
Amb1966618

>  <MW>
328.321

$$$$
Amb24182507
 OpenBabel08272102022D

 20 22  0  0  1  0  0  0  0  0999 V2000
    2.5827   -2.4414    0.0000 C   0  0  0  0  0  0  0  0  0  0  0  0
    1.6788   -1.9195    0.0000 C   0  0  0  0  0  0  0  0  0  0  0  0
    2.5794   -1.3921    0.0000 C   0  0  0  0  0  0  0  0  0  0  0  0
    1.6720   -0.9654    0.0000 O   0  0  0  0  0  0  0  0  0  0  0  0
    0.8361   -0.4828    0.0000 C   0  0  3  0  0  0  0  0  0  0  0  0
    0.0004   -1.9303    0.0000 C   0  0  3  0  0  0  0  0  0  0  0  0
    0.8363   -2.4129    0.0000 O   0  0  0  0  0  0  0  0  0  0  0  0
   -0.8357   -1.4475    0.0000 C   0  0  3  0  0  0  0  0  0  0  0  0
   -0.8424   -0.4933    0.0000 O   0  0  0  0  0  0  0  0  0  0  0  0
    0.0000   -0.0000    0.0000 C   0  0  3  0  0  0  0  0  0  0  0  0
   -0.0030    0.9655    0.0000 C   0  0  0  0  0  0  0  0  0  0  0  0
   -0.9673    1.0130    0.0000 O   0  0  0  0  0  0  0  0  0  0  0  0
   -1.6606   -1.9272    0.0000 N   0  0  0  0  0  0  0  0  0  0  0  0
   -1.7076   -2.8802    0.0000 C   0  0  0  0  0  0  0  0  0  0  0  0
   -2.6285   -3.1300    0.0000 N   0  0  0  0  0  0  0  0  0  0  0  0
   -3.1507   -2.3314    0.0000 C   0  0  0  0  0  0  0  0  0  0  0  0
   -2.5525   -1.5880    0.0000 N   0  0  0  0  0  0  0  0  0  0  0  0
   -4.1037   -2.2844    0.0000 C   0  0  0  0  0  0  0  0  0  0  0  0
   -4.5395   -1.4355    0.0000 N   0  0  0  0  0  0  0  0  0  0  0  0
   -4.6209   -3.0862    0.0000 O   0  0  0  0  0  0  0  0  0  0  0  0
  1  2  1  0  0  0  0
  2  7  1  0  0  0  0
  2  3  1  0  0  0  0
  2  4  1  0  0  0  0
  4  5  1  0  0  0  0
  5 10  1  0  0  0  0
  5  6  1  0  0  0  0
  6  7  1  0  0  0  0
  6  8  1  0  0  0  0
  8  9  1  0  0  0  0
  8 13  1  0  0  0  0
  9 10  1  0  0  0  0
 10 11  1  0  0  0  0
 11 12  1  0  0  0  0
 13 17  1  0  0  0  0
 13 14  1  0  0  0  0
 14 15  2  0  0  0  0
 15 16  1  0  0  0  0
 16 17  2  0  0  0  0
 16 18  1  0  0  0  0
 18 19  1  0  0  0  0
 18 20  2  0  0  0  0
M  RAD  2  15   2  17   2
M  END
>  <Supplier>
www.ambinter.com

>  <Ambinter_reference>
Amb24182507

>  <MW>
284.269

$$$$
Amb25065295
 OpenBabel08272102022D

 14 15  0  0  1  0  0  0  0  0999 V2000
    1.7677   -4.4250    0.0000 N   0  0  0  0  0  0  0  0  0  0  0  0
    2.3554   -3.6160    0.0000 C   0  0  0  0  0  0  0  0  0  0  0  0
    3.3500   -3.7205    0.0000 O   0  0  0  0  0  0  0  0  0  0  0  0
    1.9487   -2.7024    0.0000 C   0  0  0  0  0  0  0  0  0  0  0  0
    0.9706   -2.4945    0.0000 N   0  0  0  0  0  0  0  0  0  0  0  0
    0.8660   -1.5000    0.0000 N   0  0  0  0  0  0  0  0  0  0  0  0
    1.7796   -1.0933    0.0000 C   0  0  0  0  0  0  0  0  0  0  0  0
    2.4487   -1.8364    0.0000 N   0  0  0  0  0  0  0  0  0  0  0  0
    0.0000   -1.0000    0.0000 C   0  0  3  0  0  0  0  0  0  0  0  0
   -0.8660   -1.5000    0.0000 C   0  0  0  0  0  0  0  0  0  0  0  0
   -1.7321   -1.0000    0.0000 C   0  0  0  0  0  0  0  0  0  0  0  0
   -1.7321   -0.0000    0.0000 C   0  0  0  0  0  0  0  0  0  0  0  0
   -0.8660    0.5000    0.0000 C   0  0  0  0  0  0  0  0  0  0  0  0
    0.0000    0.0000    0.0000 O   0  0  0  0  0  0  0  0  0  0  0  0
  1  2  1  0  0  0  0
  2  3  2  0  0  0  0
  2  4  1  0  0  0  0
  4  8  1  0  0  0  0
  4  5  2  0  0  0  0
  5  6  1  0  0  0  0
  6  7  1  0  0  0  0
  6  9  1  0  0  0  0
  7  8  2  0  0  0  0
  9 14  1  0  0  0  0
  9 10  1  0  0  0  0
 10 11  1  0  0  0  0
 11 12  1  0  0  0  0
 12 13  1  0  0  0  0
 13 14  1  0  0  0  0
M  RAD  2   5   2   8   2
M  END
>  <Supplier>
www.ambinter.com

>  <Ambinter_reference>
Amb25065295

>  <MW>
196.206

$$$$
Amb2608862
 OpenBabel08272102022D

 18 19  0  0  1  0  0  0  0  0999 V2000
   -3.1463    3.6247    0.0000 O   0  0  0  0  0  0  0  0  0  0  0  0
   -3.4553    2.6736    0.0000 C   0  0  0  0  0  0  0  0  0  0  0  0
   -2.7861    1.9305    0.0000 C   0  0  3  0  0  0  0  0  0  0  0  0
   -1.7916    2.0350    0.0000 O   0  0  0  0  0  0  0  0  0  0  0  0
   -1.3849    1.1215    0.0000 C   0  0  3  0  0  0  0  0  0  0  0  0
   -2.1280    0.4523    0.0000 C   0  0  3  0  0  0  0  0  0  0  0  0
   -2.9941    0.9523    0.0000 C   0  0  2  0  0  0  0  0  0  0  0  0
   -3.9886    1.0569    0.0000 H   0  0  0  0  0  0  0  0  0  0  0  0
   -3.5818    0.1433    0.0000 O   0  0  0  0  0  0  0  0  0  0  0  0
   -2.0235   -0.5422    0.0000 O   0  0  0  0  0  0  0  0  0  0  0  0
   -0.4067    0.9135    0.0000 N   0  0  0  0  0  0  0  0  0  0  0  0
    0.3364    1.5827    0.0000 C   0  0  0  0  0  0  0  0  0  0  0  0
    1.2024    1.0827    0.0000 N   0  0  0  0  0  0  0  0  0  0  0  0
    0.9945    0.1045    0.0000 C   0  0  0  0  0  0  0  0  0  0  0  0
    0.0000   -0.0000    0.0000 N   0  0  0  0  0  0  0  0  0  0  0  0
    1.6637   -0.6386    0.0000 C   0  0  0  0  0  0  0  0  0  0  0  0
    1.3546   -1.5897    0.0000 O   0  0  0  0  0  0  0  0  0  0  0  0
    2.6418   -0.4307    0.0000 N   0  0  0  0  0  0  0  0  0  0  0  0
  1  2  1  0  0  0  0
  2  3  1  0  0  0  0
  3  7  1  0  0  0  0
  3  4  1  0  0  0  0
  4  5  1  0  0  0  0
  5  6  1  0  0  0  0
  5 11  1  0  0  0  0
  6  7  1  0  0  0  0
  6 10  1  0  0  0  0
  7  8  1  1  0  0  0
  7  9  1  0  0  0  0
 11 15  1  0  0  0  0
 11 12  1  0  0  0  0
 12 13  2  0  0  0  0
 13 14  1  0  0  0  0
 14 15  2  0  0  0  0
 14 16  1  0  0  0  0
 16 17  2  0  0  0  0
 16 18  1  0  0  0  0
M  END
>  <Supplier>
www.ambinter.com

>  <Ambinter_reference>
Amb2608862

>  <MW>
244.205

$$$$
Amb26536467
 OpenBabel08272102022D

 13 14  0  0  1  0  0  0  0  0999 V2000
    3.1463   -3.6247    0.0000 N   0  0  0  0  0  0  0  0  0  0  0  0
    3.4553   -2.6736    0.0000 C   0  0  0  0  0  0  0  0  0  0  0  0
    4.4334   -2.4657    0.0000 O   0  0  0  0  0  0  0  0  0  0  0  0
    2.7861   -1.9305    0.0000 C   0  0  0  0  0  0  0  0  0  0  0  0
    1.7916   -2.0350    0.0000 N   0  0  0  0  0  0  0  0  0  0  0  0
    1.3849   -1.1215    0.0000 N   0  0  0  0  0  0  0  0  0  0  0  0
    2.1280   -0.4523    0.0000 C   0  0  0  0  0  0  0  0  0  0  0  0
    2.9941   -0.9523    0.0000 N   0  0  0  0  0  0  0  0  0  0  0  0
    0.4067   -0.9135    0.0000 C   0  0  3  0  0  0  0  0  0  0  0  0
   -0.3364   -1.5827    0.0000 C   0  0  0  0  0  0  0  0  0  0  0  0
   -1.2024   -1.0827    0.0000 C   0  0  0  0  0  0  0  0  0  0  0  0
   -0.9945   -0.1045    0.0000 C   0  0  0  0  0  0  0  0  0  0  0  0
    0.0000    0.0000    0.0000 O   0  0  0  0  0  0  0  0  0  0  0  0
  1  2  1  0  0  0  0
  2  3  2  0  0  0  0
  2  4  1  0  0  0  0
  4  8  1  0  0  0  0
  4  5  2  0  0  0  0
  5  6  1  0  0  0  0
  6  7  1  0  0  0  0
  6  9  1  0  0  0  0
  7  8  2  0  0  0  0
  9 13  1  0  0  0  0
  9 10  1  0  0  0  0
 10 11  1  0  0  0  0
 11 12  1  0  0  0  0
 12 13  1  0  0  0  0
M  RAD  2   5   2   8   2
M  END
>  <Supplier>
www.ambinter.com

>  <Ambinter_reference>
Amb26536467

>  <MW>
182.18

$$$$
Amb2719673
 OpenBabel08272102022D

 17 18  0  0  1  0  0  0  0  0999 V2000
    3.1463   -3.6247    0.0000 O   0  0  0  0  0  0  0  0  0  0  0  0
    3.4553   -2.6736    0.0000 C   0  0  0  0  0  0  0  0  0  0  0  0
    2.7861   -1.9305    0.0000 C   0  0  3  0  0  0  0  0  0  0  0  0
    1.7916   -2.0350    0.0000 O   0  0  0  0  0  0  0  0  0  0  0  0
    1.3849   -1.1215    0.0000 C   0  0  3  0  0  0  0  0  0  0  0  0
    2.1280   -0.4523    0.0000 C   0  0  3  0  0  0  0  0  0  0  0  0
    2.9941   -0.9523    0.0000 C   0  0  3  0  0  0  0  0  0  0  0  0
    3.9076   -0.5456    0.0000 O   0  0  0  0  0  0  0  0  0  0  0  0
    2.0235    0.5422    0.0000 O   0  0  0  0  0  0  0  0  0  0  0  0
    0.4067   -0.9135    0.0000 N   0  0  0  0  0  0  0  0  0  0  0  0
   -0.3364   -1.5827    0.0000 C   0  0  0  0  0  0  0  0  0  0  0  0
   -1.2024   -1.0827    0.0000 N   0  0  0  0  0  0  0  0  0  0  0  0
   -0.9945   -0.1045    0.0000 C   0  0  0  0  0  0  0  0  0  0  0  0
    0.0000    0.0000    0.0000 N   0  0  0  0  0  0  0  0  0  0  0  0
   -1.6637    0.6386    0.0000 C   0  0  0  0  0  0  0  0  0  0  0  0
   -1.3546    1.5897    0.0000 O   0  0  0  0  0  0  0  0  0  0  0  0
   -2.6418    0.4307    0.0000 N   0  0  0  0  0  0  0  0  0  0  0  0
  1  2  1  0  0  0  0
  2  3  1  0  0  0  0
  3  7  1  0  0  0  0
  3  4  1  0  0  0  0
  4  5  1  0  0  0  0
  5  6  1  0  0  0  0
  5 10  1  0  0  0  0
  6  7  1  0  0  0  0
  6  9  1  0  0  0  0
  7  8  1  0  0  0  0
 10 14  1  0  0  0  0
 10 11  1  0  0  0  0
 11 12  2  0  0  0  0
 12 13  1  0  0  0  0
 13 14  2  0  0  0  0
 13 15  1  0  0  0  0
 15 16  2  0  0  0  0
 15 17  1  0  0  0  0
M  END
>  <Supplier>
www.ambinter.com

>  <Ambinter_reference>
Amb2719673

>  <MW>
244.205

$$$$
Amb2745408
 OpenBabel08272102022D

 21 22  0  0  1  0  0  0  0  0999 V2000
    4.3764   -2.5023    0.0000 O   0  0  0  0  0  0  0  0  0  0  0  0
    4.0180   -1.5687    0.0000 C   0  0  0  0  0  0  0  0  0  0  0  0
    3.0303   -1.4123    0.0000 C   0  0  2  0  0  0  0  0  0  0  0  0
    2.6805   -2.3491    0.0000 H   0  0  0  0  0  0  0  0  0  0  0  0
    2.0303   -1.4123    0.0000 O   0  0  0  0  0  0  0  0  0  0  0  0
    1.7213   -0.4612    0.0000 C   0  0  1  0  0  0  0  0  0  0  0  0
    1.0522    0.2819    0.0000 H   0  0  0  0  0  0  0  0  0  0  0  0
    2.5303    0.1266    0.0000 C   0  0  2  0  0  0  0  0  0  0  0  0
    3.0303    0.9926    0.0000 H   0  0  0  0  0  0  0  0  0  0  0  0
    3.3393   -0.4612    0.0000 C   0  0  1  0  0  0  0  0  0  0  0  0
    4.3175   -0.6691    0.0000 H   0  0  0  0  0  0  0  0  0  0  0  0
    4.0085    0.2819    0.0000 O   0  0  0  0  0  0  0  0  0  0  0  0
    2.0303    0.9926    0.0000 O   0  0  0  0  0  0  0  0  0  0  0  0
    0.7431   -0.6691    0.0000 N   0  0  0  0  0  0  0  0  0  0  0  0
    0.3364   -1.5827    0.0000 C   0  0  0  0  0  0  0  0  0  0  0  0
   -0.6581   -1.4781    0.0000 N   0  0  0  0  0  0  0  0  0  0  0  0
   -0.8660   -0.5000    0.0000 C   0  0  0  0  0  0  0  0  0  0  0  0
   -0.0000   -0.0000    0.0000 N   0  0  0  0  0  0  0  0  0  0  0  0
   -1.7796   -0.0933    0.0000 C   0  0  0  0  0  0  0  0  0  0  0  0
   -1.8841    0.9013    0.0000 O   0  0  0  0  0  0  0  0  0  0  0  0
   -2.5886   -0.6810    0.0000 N   0  0  0  0  0  0  0  0  0  0  0  0
  1  2  1  0  0  0  0
  2  3  1  0  0  0  0
  3  4  1  1  0  0  0
  3 10  1  0  0  0  0
  3  5  1  0  0  0  0
  5  6  1  0  0  0  0
  6  7  1  1  0  0  0
  6  8  1  0  0  0  0
  6 14  1  0  0  0  0
  8  9  1  6  0  0  0
  8 10  1  0  0  0  0
  8 13  1  0  0  0  0
 10 11  1  6  0  0  0
 10 12  1  0  0  0  0
 14 18  1  0  0  0  0
 14 15  1  0  0  0  0
 15 16  2  0  0  0  0
 16 17  1  0  0  0  0
 17 18  2  0  0  0  0
 17 19  1  0  0  0  0
 19 20  2  0  0  0  0
 19 21  1  0  0  0  0
M  END
>  <Supplier>
www.ambinter.com

>  <Ambinter_reference>
Amb2745408

>  <MW>
244.205

$$$$
Amb33825548
 OpenBabel08272102022D

 29 31  0  0  1  0  0  0  0  0999 V2000
   -4.3757    2.3181    0.0000 N   0  0  0  0  0  0  0  0  0  0  0  0
   -4.3250    1.3507    0.0000 C   0  0  0  0  0  0  0  0  0  0  0  0
   -5.1374    0.8230    0.0000 O   0  0  0  0  0  0  0  0  0  0  0  0
   -3.4618    0.9109    0.0000 C   0  0  0  0  0  0  0  0  0  0  0  0
   -2.5987    1.3507    0.0000 N   0  0  0  0  0  0  0  0  0  0  0  0
   -1.9136    0.6657    0.0000 N   0  0  0  0  0  0  0  0  0  0  0  0
   -2.3534   -0.1975    0.0000 C   0  0  0  0  0  0  0  0  0  0  0  0
   -3.3103   -0.0460    0.0000 N   0  0  0  0  0  0  0  0  0  0  0  0
    0.0000    0.9688    0.0000 C   0  0  2  0  0  0  0  0  0  0  0  0
    0.0418    1.9366    0.0000 H   0  0  0  0  0  0  0  0  0  0  0  0
    0.9213    1.2681    0.0000 O   0  0  0  0  0  0  0  0  0  0  0  0
    1.4908    0.4844    0.0000 C   0  0  2  0  0  0  0  0  0  0  0  0
    2.3297    0.0000    0.0000 H   0  0  0  0  0  0  0  0  0  0  0  0
    2.3297    0.9687    0.0000 C   0  0  0  0  0  0  0  0  0  0  0  0
    2.3297    1.9375    0.0000 O   0  0  0  0  0  0  0  0  0  0  0  0
    3.1687    2.4219    0.0000 C   0  0  0  0  0  0  0  0  0  0  0  0
    4.0076    1.9375    0.0000 O   0  0  0  0  0  0  0  0  0  0  0  0
    3.1687    3.3906    0.0000 C   0  0  0  0  0  0  0  0  0  0  0  0
    2.3297    3.8750    0.0000 C   0  0  0  0  0  0  0  0  0  0  0  0
    2.3297    4.8438    0.0000 C   0  0  0  0  0  0  0  0  0  0  0  0
    3.1687    5.3281    0.0000 C   0  0  0  0  0  0  0  0  0  0  0  0
    4.0076    4.8438    0.0000 C   0  0  0  0  0  0  0  0  0  0  0  0
    4.0076    3.8750    0.0000 C   0  0  0  0  0  0  0  0  0  0  0  0
    0.9213   -0.2994    0.0000 C   0  0  1  0  0  0  0  0  0  0  0  0
    0.7199   -1.2469    0.0000 H   0  0  0  0  0  0  0  0  0  0  0  0
    1.6413   -0.9476    0.0000 O   0  0  0  0  0  0  0  0  0  0  0  0
    0.0000   -0.0000    0.0000 C   0  0  1  0  0  0  0  0  0  0  0  0
   -0.9634   -0.1013    0.0000 H   0  0  0  0  0  0  0  0  0  0  0  0
   -0.3940   -0.8850    0.0000 O   0  0  0  0  0  0  0  0  0  0  0  0
  1  2  1  0  0  0  0
  2  3  2  0  0  0  0
  2  4  1  0  0  0  0
  4  8  1  0  0  0  0
  4  5  2  0  0  0  0
  5  6  1  0  0  0  0
  6  7  1  0  0  0  0
  6  9  1  0  0  0  0
  7  8  2  0  0  0  0
  9 10  1  1  0  0  0
  9 27  1  0  0  0  0
  9 11  1  0  0  0  0
 11 12  1  0  0  0  0
 12 13  1  1  0  0  0
 12 14  1  0  0  0  0
 12 24  1  0  0  0  0
 14 15  1  0  0  0  0
 15 16  1  0  0  0  0
 16 17  2  0  0  0  0
 16 18  1  0  0  0  0
 18 23  1  0  0  0  0
 18 19  2  0  0  0  0
 19 20  1  0  0  0  0
 20 21  2  0  0  0  0
 21 22  1  0  0  0  0
 22 23  2  0  0  0  0
 24 25  1  6  0  0  0
 24 26  1  0  0  0  0
 24 27  1  0  0  0  0
 27 28  1  6  0  0  0
 27 29  1  0  0  0  0
M  RAD  2   5   2   8   2
M  END
>  <Supplier>
www.ambinter.com

>  <Ambinter_reference>
Amb33825548

>  <MW>
348.311

$$$$
Amb33825549
 OpenBabel08272102022D

 24 25  0  0  1  0  0  0  0  0999 V2000
    5.9934    1.8816    0.0000 C   0  0  0  0  0  0  0  0  0  0  0  0
    5.3641    2.6587    0.0000 C   0  0  0  0  0  0  0  0  0  0  0  0
    5.7224    3.5923    0.0000 O   0  0  0  0  0  0  0  0  0  0  0  0
    4.3764    2.5023    0.0000 O   0  0  0  0  0  0  0  0  0  0  0  0
    4.0180    1.5687    0.0000 C   0  0  0  0  0  0  0  0  0  0  0  0
    3.0303    1.4123    0.0000 C   0  0  1  0  0  0  0  0  0  0  0  0
    2.6805    2.3491    0.0000 H   0  0  0  0  0  0  0  0  0  0  0  0
    2.0303    1.4123    0.0000 O   0  0  0  0  0  0  0  0  0  0  0  0
    1.7213    0.4612    0.0000 C   0  0  2  0  0  0  0  0  0  0  0  0
    1.0522   -0.2819    0.0000 H   0  0  0  0  0  0  0  0  0  0  0  0
    2.5303   -0.1266    0.0000 C   0  0  2  0  0  0  0  0  0  0  0  0
    3.0303   -0.9926    0.0000 H   0  0  0  0  0  0  0  0  0  0  0  0
    2.0303   -0.9926    0.0000 O   0  0  0  0  0  0  0  0  0  0  0  0
    3.3393    0.4612    0.0000 C   0  0  2  0  0  0  0  0  0  0  0  0
    4.3175    0.6691    0.0000 H   0  0  0  0  0  0  0  0  0  0  0  0
    4.0085   -0.2819    0.0000 O   0  0  0  0  0  0  0  0  0  0  0  0
    0.7431    0.6691    0.0000 N   0  0  0  0  0  0  0  0  0  0  0  0
    0.3364    1.5827    0.0000 C   0  0  0  0  0  0  0  0  0  0  0  0
   -0.6581    1.4781    0.0000 N   0  0  0  0  0  0  0  0  0  0  0  0
   -0.8660    0.5000    0.0000 C   0  0  0  0  0  0  0  0  0  0  0  0
   -0.0000   -0.0000    0.0000 N   0  0  0  0  0  0  0  0  0  0  0  0
   -1.7796    0.0933    0.0000 C   0  0  0  0  0  0  0  0  0  0  0  0
   -1.8841   -0.9013    0.0000 N   0  0  0  0  0  0  0  0  0  0  0  0
   -2.5886    0.6810    0.0000 O   0  0  0  0  0  0  0  0  0  0  0  0
  1  2  1  0  0  0  0
  2  3  2  0  0  0  0
  2  4  1  0  0  0  0
  4  5  1  0  0  0  0
  5  6  1  0  0  0  0
  6  7  1  1  0  0  0
  6 14  1  0  0  0  0
  6  8  1  0  0  0  0
  8  9  1  0  0  0  0
  9 10  1  1  0  0  0
  9 11  1  0  0  0  0
  9 17  1  0  0  0  0
 11 12  1  6  0  0  0
 11 13  1  0  0  0  0
 11 14  1  0  0  0  0
 14 15  1  6  0  0  0
 14 16  1  0  0  0  0
 17 21  1  0  0  0  0
 17 18  1  0  0  0  0
 18 19  2  0  0  0  0
 19 20  1  0  0  0  0
 20 21  2  0  0  0  0
 20 22  1  0  0  0  0
 22 23  1  0  0  0  0
 22 24  2  0  0  0  0
M  RAD  2  19   2  21   2
M  END
>  <Supplier>
www.ambinter.com

>  <Ambinter_reference>
Amb33825549

>  <MW>
286.241

$$$$
Amb33825707
 OpenBabel08272102022D

 37 39  0  0  1  0  0  0  0  0999 V2000
    1.4643   -4.7637    0.0000 N   0  0  0  0  0  0  0  0  0  0  0  0
    2.1167   -4.0392    0.0000 C   0  0  0  0  0  0  0  0  0  0  0  0
    3.0704   -4.2419    0.0000 O   0  0  0  0  0  0  0  0  0  0  0  0
    1.8154   -3.1119    0.0000 C   0  0  0  0  0  0  0  0  0  0  0  0
    0.8882   -2.8106    0.0000 N   0  0  0  0  0  0  0  0  0  0  0  0
    0.8882   -1.8356    0.0000 N   0  0  0  0  0  0  0  0  0  0  0  0
    1.8154   -1.5343    0.0000 C   0  0  0  0  0  0  0  0  0  0  0  0
    2.3885   -2.3231    0.0000 N   0  0  0  0  0  0  0  0  0  0  0  0
   -0.6894   -0.6894    0.0000 C   0  0  2  0  0  0  0  0  0  0  0  0
   -1.4080   -1.3484    0.0000 H   0  0  0  0  0  0  0  0  0  0  0  0
   -1.5582   -0.2468    0.0000 O   0  0  0  0  0  0  0  0  0  0  0  0
   -1.4056    0.7162    0.0000 C   0  0  2  0  0  0  0  0  0  0  0  0
   -1.6580    1.6580    0.0000 H   0  0  0  0  0  0  0  0  0  0  0  0
   -2.3474    0.9686    0.0000 C   0  0  0  0  0  0  0  0  0  0  0  0
   -3.0368    0.2791    0.0000 O   0  0  0  0  0  0  0  0  0  0  0  0
   -3.9786    0.5315    0.0000 C   0  0  2  0  0  0  0  0  0  0  0  0
   -4.1059    1.4981    0.0000 H   0  0  0  0  0  0  0  0  0  0  0  0
   -4.8230    1.0190    0.0000 O   0  0  0  0  0  0  0  0  0  0  0  0
   -5.6674    0.5315    0.0000 C   0  0  2  0  0  0  0  0  0  0  0  0
   -6.6424    0.5315    0.0000 H   0  0  0  0  0  0  0  0  0  0  0  0
   -6.1549    1.3759    0.0000 C   0  0  0  0  0  0  0  0  0  0  0  0
   -7.1299    1.3759    0.0000 O   0  0  0  0  0  0  0  0  0  0  0  0
   -5.6674   -0.4435    0.0000 C   0  0  1  0  0  0  0  0  0  0  0  0
   -6.1549   -1.2879    0.0000 H   0  0  0  0  0  0  0  0  0  0  0  0
   -6.6424   -0.4435    0.0000 O   0  0  0  0  0  0  0  0  0  0  0  0
   -4.8230   -0.9310    0.0000 C   0  0  2  0  0  0  0  0  0  0  0  0
   -4.3355   -1.7754    0.0000 H   0  0  0  0  0  0  0  0  0  0  0  0
   -5.3105   -1.7754    0.0000 O   0  0  0  0  0  0  0  0  0  0  0  0
   -3.9786   -0.4435    0.0000 C   0  0  1  0  0  0  0  0  0  0  0  0
   -3.0036   -0.4435    0.0000 H   0  0  0  0  0  0  0  0  0  0  0  0
   -3.4911   -1.2879    0.0000 O   0  0  0  0  0  0  0  0  0  0  0  0
   -0.4426    0.8687    0.0000 C   0  0  1  0  0  0  0  0  0  0  0  0
    0.3751    1.3998    0.0000 H   0  0  0  0  0  0  0  0  0  0  0  0
   -0.4937    1.8424    0.0000 O   0  0  0  0  0  0  0  0  0  0  0  0
    0.0000    0.0000    0.0000 C   0  0  1  0  0  0  0  0  0  0  0  0
    0.7577   -0.6136    0.0000 H   0  0  0  0  0  0  0  0  0  0  0  0
    0.9102    0.3494    0.0000 O   0  0  0  0  0  0  0  0  0  0  0  0
  1  2  1  0  0  0  0
  2  3  2  0  0  0  0
  2  4  1  0  0  0  0
  4  8  1  0  0  0  0
  4  5  2  0  0  0  0
  5  6  1  0  0  0  0
  6  7  1  0  0  0  0
  6  9  1  0  0  0  0
  7  8  2  0  0  0  0
  9 10  1  1  0  0  0
  9 35  1  0  0  0  0
  9 11  1  0  0  0  0
 11 12  1  0  0  0  0
 12 13  1  1  0  0  0
 12 14  1  0  0  0  0
 12 32  1  0  0  0  0
 14 15  1  0  0  0  0
 15 16  1  0  0  0  0
 16 17  1  6  0  0  0
 16 29  1  0  0  0  0
 16 18  1  0  0  0  0
 18 19  1  0  0  0  0
 19 20  1  6  0  0  0
 19 21  1  0  0  0  0
 19 23  1  0  0  0  0
 21 22  1  0  0  0  0
 23 24  1  1  0  0  0
 23 25  1  0  0  0  0
 23 26  1  0  0  0  0
 26 27  1  6  0  0  0
 26 28  1  0  0  0  0
 26 29  1  0  0  0  0
 29 30  1  1  0  0  0
 29 31  1  0  0  0  0
 32 33  1  6  0  0  0
 32 34  1  0  0  0  0
 32 35  1  0  0  0  0
 35 36  1  6  0  0  0
 35 37  1  0  0  0  0
M  RAD  2   5   2   8   2
M  END
>  <Supplier>
www.ambinter.com

>  <Ambinter_reference>
Amb33825707

>  <MW>
406.345

$$$$
Amb33825708
 OpenBabel08272102022D

 37 39  0  0  1  0  0  0  0  0999 V2000
    1.4643   -4.7637    0.0000 N   0  0  0  0  0  0  0  0  0  0  0  0
    2.1167   -4.0392    0.0000 C   0  0  0  0  0  0  0  0  0  0  0  0
    3.0704   -4.2419    0.0000 O   0  0  0  0  0  0  0  0  0  0  0  0
    1.8154   -3.1119    0.0000 C   0  0  0  0  0  0  0  0  0  0  0  0
    0.8882   -2.8106    0.0000 N   0  0  0  0  0  0  0  0  0  0  0  0
    0.8882   -1.8356    0.0000 N   0  0  0  0  0  0  0  0  0  0  0  0
    1.8154   -1.5343    0.0000 C   0  0  0  0  0  0  0  0  0  0  0  0
    2.3885   -2.3231    0.0000 N   0  0  0  0  0  0  0  0  0  0  0  0
   -0.6894   -0.6894    0.0000 C   0  0  2  0  0  0  0  0  0  0  0  0
   -1.4080   -1.3484    0.0000 H   0  0  0  0  0  0  0  0  0  0  0  0
   -1.5582   -0.2468    0.0000 O   0  0  0  0  0  0  0  0  0  0  0  0
   -1.4056    0.7162    0.0000 C   0  0  2  0  0  0  0  0  0  0  0  0
   -1.6580    1.6580    0.0000 H   0  0  0  0  0  0  0  0  0  0  0  0
   -2.3474    0.9686    0.0000 C   0  0  0  0  0  0  0  0  0  0  0  0
   -3.0368    0.2791    0.0000 O   0  0  0  0  0  0  0  0  0  0  0  0
   -3.9786    0.5315    0.0000 C   0  0  2  0  0  0  0  0  0  0  0  0
   -4.1059    1.4981    0.0000 H   0  0  0  0  0  0  0  0  0  0  0  0
   -4.8230    1.0190    0.0000 O   0  0  0  0  0  0  0  0  0  0  0  0
   -5.6674    0.5315    0.0000 C   0  0  2  0  0  0  0  0  0  0  0  0
   -6.6424    0.5315    0.0000 H   0  0  0  0  0  0  0  0  0  0  0  0
   -6.1549    1.3759    0.0000 C   0  0  0  0  0  0  0  0  0  0  0  0
   -7.1299    1.3759    0.0000 O   0  0  0  0  0  0  0  0  0  0  0  0
   -5.6674   -0.4435    0.0000 C   0  0  2  0  0  0  0  0  0  0  0  0
   -6.1549   -1.2879    0.0000 H   0  0  0  0  0  0  0  0  0  0  0  0
   -6.6424   -0.4435    0.0000 O   0  0  0  0  0  0  0  0  0  0  0  0
   -4.8230   -0.9310    0.0000 C   0  0  2  0  0  0  0  0  0  0  0  0
   -4.3355   -1.7754    0.0000 H   0  0  0  0  0  0  0  0  0  0  0  0
   -5.3105   -1.7754    0.0000 O   0  0  0  0  0  0  0  0  0  0  0  0
   -3.9786   -0.4435    0.0000 C   0  0  1  0  0  0  0  0  0  0  0  0
   -3.0036   -0.4435    0.0000 H   0  0  0  0  0  0  0  0  0  0  0  0
   -3.4911   -1.2879    0.0000 O   0  0  0  0  0  0  0  0  0  0  0  0
   -0.4426    0.8687    0.0000 C   0  0  1  0  0  0  0  0  0  0  0  0
    0.3751    1.3998    0.0000 H   0  0  0  0  0  0  0  0  0  0  0  0
   -0.4937    1.8424    0.0000 O   0  0  0  0  0  0  0  0  0  0  0  0
    0.0000    0.0000    0.0000 C   0  0  1  0  0  0  0  0  0  0  0  0
    0.7577   -0.6136    0.0000 H   0  0  0  0  0  0  0  0  0  0  0  0
    0.9102    0.3494    0.0000 O   0  0  0  0  0  0  0  0  0  0  0  0
  1  2  1  0  0  0  0
  2  3  2  0  0  0  0
  2  4  1  0  0  0  0
  4  8  1  0  0  0  0
  4  5  2  0  0  0  0
  5  6  1  0  0  0  0
  6  7  1  0  0  0  0
  6  9  1  0  0  0  0
  7  8  2  0  0  0  0
  9 10  1  1  0  0  0
  9 35  1  0  0  0  0
  9 11  1  0  0  0  0
 11 12  1  0  0  0  0
 12 13  1  1  0  0  0
 12 14  1  0  0  0  0
 12 32  1  0  0  0  0
 14 15  1  0  0  0  0
 15 16  1  0  0  0  0
 16 17  1  6  0  0  0
 16 29  1  0  0  0  0
 16 18  1  0  0  0  0
 18 19  1  0  0  0  0
 19 20  1  6  0  0  0
 19 21  1  0  0  0  0
 19 23  1  0  0  0  0
 21 22  1  0  0  0  0
 23 24  1  6  0  0  0
 23 25  1  0  0  0  0
 23 26  1  0  0  0  0
 26 27  1  6  0  0  0
 26 28  1  0  0  0  0
 26 29  1  0  0  0  0
 29 30  1  1  0  0  0
 29 31  1  0  0  0  0
 32 33  1  6  0  0  0
 32 34  1  0  0  0  0
 32 35  1  0  0  0  0
 35 36  1  6  0  0  0
 35 37  1  0  0  0  0
M  RAD  2   5   2   8   2
M  END
>  <Supplier>
www.ambinter.com

>  <Ambinter_reference>
Amb33825708

>  <MW>
406.345

$$$$
Amb33828957
 OpenBabel08272102022D

 33 34  0  0  1  0  0  0  0  0999 V2000
    5.0931   -4.3695    0.0000 C   0  0  0  0  0  0  0  0  0  0  0  0
    5.7224   -3.5923    0.0000 C   0  0  0  0  0  0  0  0  0  0  0  0
    5.3641   -2.6587    0.0000 C   0  0  0  0  0  0  0  0  0  0  0  0
    4.3764   -2.5023    0.0000 C   0  0  0  0  0  0  0  0  0  0  0  0
    4.0180   -1.5687    0.0000 O   0  0  0  0  0  0  0  0  0  0  0  0
    3.0303   -1.4123    0.0000 C   0  0  1  0  0  0  0  0  0  0  0  0
    2.6805   -2.3491    0.0000 H   0  0  0  0  0  0  0  0  0  0  0  0
    2.0303   -1.4123    0.0000 C   0  0  1  0  0  0  0  0  0  0  0  0
    1.1168   -1.8190    0.0000 H   0  0  0  0  0  0  0  0  0  0  0  0
    1.9258   -2.4068    0.0000 O   0  0  0  0  0  0  0  0  0  0  0  0
    2.7348   -2.9946    0.0000 C   0  0  0  0  0  0  0  0  0  0  0  0
    2.6303   -3.9891    0.0000 C   0  0  0  0  0  0  0  0  0  0  0  0
    1.7167   -4.3958    0.0000 C   0  0  0  0  0  0  0  0  0  0  0  0
    1.6122   -5.3904    0.0000 C   0  0  0  0  0  0  0  0  0  0  0  0
    1.7213   -0.4612    0.0000 C   0  0  1  0  0  0  0  0  0  0  0  0
    1.0522    0.2819    0.0000 H   0  0  0  0  0  0  0  0  0  0  0  0
    2.5303    0.1266    0.0000 O   0  0  0  0  0  0  0  0  0  0  0  0
    3.3393   -0.4612    0.0000 C   0  0  2  0  0  0  0  0  0  0  0  0
    4.3175   -0.6691    0.0000 H   0  0  0  0  0  0  0  0  0  0  0  0
    4.0085    0.2819    0.0000 C   0  0  0  0  0  0  0  0  0  0  0  0
    3.6994    1.2330    0.0000 O   0  0  0  0  0  0  0  0  0  0  0  0
    2.7213    1.4409    0.0000 C   0  0  0  0  0  0  0  0  0  0  0  0
    2.4123    2.3920    0.0000 C   0  0  0  0  0  0  0  0  0  0  0  0
    1.4341    2.5999    0.0000 C   0  0  0  0  0  0  0  0  0  0  0  0
    1.1251    3.5509    0.0000 C   0  0  0  0  0  0  0  0  0  0  0  0
    0.7431   -0.6691    0.0000 N   0  0  0  0  0  0  0  0  0  0  0  0
    0.3364   -1.5827    0.0000 C   0  0  0  0  0  0  0  0  0  0  0  0
   -0.6581   -1.4781    0.0000 N   0  0  0  0  0  0  0  0  0  0  0  0
   -0.8660   -0.5000    0.0000 C   0  0  0  0  0  0  0  0  0  0  0  0
    0.0000    0.0000    0.0000 N   0  0  0  0  0  0  0  0  0  0  0  0
   -1.7796   -0.0933    0.0000 C   0  0  0  0  0  0  0  0  0  0  0  0
   -1.8841    0.9013    0.0000 N   0  0  0  0  0  0  0  0  0  0  0  0
   -2.5886   -0.6810    0.0000 O   0  0  0  0  0  0  0  0  0  0  0  0
  1  2  1  0  0  0  0
  2  3  1  0  0  0  0
  3  4  1  0  0  0  0
  4  5  1  0  0  0  0
  5  6  1  0  0  0  0
  6  7  1  6  0  0  0
  6 18  1  0  0  0  0
  6  8  1  0  0  0  0
  8  9  1  6  0  0  0
  8 10  1  0  0  0  0
  8 15  1  0  0  0  0
 10 11  1  0  0  0  0
 11 12  1  0  0  0  0
 12 13  1  0  0  0  0
 13 14  1  0  0  0  0
 15 16  1  1  0  0  0
 15 17  1  0  0  0  0
 15 26  1  0  0  0  0
 17 18  1  0  0  0  0
 18 19  1  1  0  0  0
 18 20  1  0  0  0  0
 20 21  1  0  0  0  0
 21 22  1  0  0  0  0
 22 23  1  0  0  0  0
 23 24  1  0  0  0  0
 24 25  1  0  0  0  0
 26 30  1  0  0  0  0
 26 27  1  0  0  0  0
 27 28  2  0  0  0  0
 28 29  1  0  0  0  0
 29 30  2  0  0  0  0
 29 31  1  0  0  0  0
 31 32  1  0  0  0  0
 31 33  2  0  0  0  0
M  RAD  2  28   2  30   2
M  END
>  <Supplier>
www.ambinter.com

>  <Ambinter_reference>
Amb33828957

>  <MW>
412.524

$$$$
Amb33829277
 OpenBabel08272102022D

 22 23  0  0  1  0  0  0  0  0999 V2000
   -3.9219    2.2290    0.0000 H   0  0  0  0  0  0  0  0  0  0  0  0
   -4.6341    1.5878    0.0000 N   0  0  0  0  0  0  0  0  0  0  0  0
   -4.4348    0.6504    0.0000 C   0  0  0  0  0  0  0  0  0  0  0  0
   -5.1470    0.0091    0.0000 N   0  0  0  0  0  0  0  0  0  0  0  0
   -3.5234    0.3543    0.0000 C   0  0  0  0  0  0  0  0  0  0  0  0
   -2.7481    0.9175    0.0000 N   0  0  0  0  0  0  0  0  0  0  0  0
   -1.9728    0.3543    0.0000 N   0  0  0  0  0  0  0  0  0  0  0  0
   -2.2689   -0.5572    0.0000 C   0  0  0  0  0  0  0  0  0  0  0  0
   -3.2272   -0.5572    0.0000 N   0  0  0  0  0  0  0  0  0  0  0  0
   -0.1499    0.9465    0.0000 C   0  0  2  0  0  0  0  0  0  0  0  0
   -0.2588    1.8987    0.0000 H   0  0  0  0  0  0  0  0  0  0  0  0
    0.7040    1.3816    0.0000 O   0  0  0  0  0  0  0  0  0  0  0  0
    1.3816    0.7040    0.0000 C   0  0  2  0  0  0  0  0  0  0  0  0
    2.2763    0.3605    0.0000 H   0  0  0  0  0  0  0  0  0  0  0  0
    2.1264    1.3071    0.0000 C   0  0  0  0  0  0  0  0  0  0  0  0
    3.0211    0.9636    0.0000 O   0  0  0  0  0  0  0  0  0  0  0  0
    0.9465   -0.1499    0.0000 C   0  0  2  0  0  0  0  0  0  0  0  0
    0.8964   -1.1069    0.0000 H   0  0  0  0  0  0  0  0  0  0  0  0
    1.7503   -0.6719    0.0000 O   0  0  0  0  0  0  0  0  0  0  0  0
    0.0000   -0.0000    0.0000 C   0  0  1  0  0  0  0  0  0  0  0  0
   -0.9257   -0.2480    0.0000 H   0  0  0  0  0  0  0  0  0  0  0  0
   -0.2480   -0.9257    0.0000 O   0  0  0  0  0  0  0  0  0  0  0  0
  1  2  1  0  0  0  0
  2  3  2  0  0  0  0
  3  4  1  0  0  0  0
  3  5  1  0  0  0  0
  5  9  1  0  0  0  0
  5  6  2  0  0  0  0
  6  7  1  0  0  0  0
  7  8  1  0  0  0  0
  7 10  1  0  0  0  0
  8  9  2  0  0  0  0
 10 11  1  1  0  0  0
 10 20  1  0  0  0  0
 10 12  1  0  0  0  0
 12 13  1  0  0  0  0
 13 14  1  1  0  0  0
 13 15  1  0  0  0  0
 13 17  1  0  0  0  0
 15 16  1  0  0  0  0
 17 18  1  1  0  0  0
 17 19  1  0  0  0  0
 17 20  1  0  0  0  0
 20 21  1  6  0  0  0
 20 22  1  0  0  0  0
M  RAD  2   6   2   9   2
M  END
>  <Supplier>
www.ambinter.com

>  <Ambinter_reference>
Amb33829277

>  <MW>
243.22

$$$$
Amb33834778
 OpenBabel08272102022D

 22 23  0  0  1  0  0  0  0  0999 V2000
   -3.9219    2.2290    0.0000 H   0  0  0  0  0  0  0  0  0  0  0  0
   -4.6341    1.5878    0.0000 N   0  0  0  0  0  0  0  0  0  0  0  0
   -4.4348    0.6504    0.0000 C   0  0  0  0  0  0  0  0  0  0  0  0
   -5.1470    0.0091    0.0000 N   0  0  0  0  0  0  0  0  0  0  0  0
   -3.5234    0.3543    0.0000 C   0  0  0  0  0  0  0  0  0  0  0  0
   -2.7481    0.9175    0.0000 N   0  0  0  0  0  0  0  0  0  0  0  0
   -1.9728    0.3543    0.0000 N   0  0  0  0  0  0  0  0  0  0  0  0
   -2.2689   -0.5572    0.0000 C   0  0  0  0  0  0  0  0  0  0  0  0
   -3.2272   -0.5572    0.0000 N   0  0  0  0  0  0  0  0  0  0  0  0
   -0.1499    0.9465    0.0000 C   0  0  2  0  0  0  0  0  0  0  0  0
   -0.2588    1.8987    0.0000 H   0  0  0  0  0  0  0  0  0  0  0  0
    0.7040    1.3816    0.0000 O   0  0  0  0  0  0  0  0  0  0  0  0
    1.3816    0.7040    0.0000 C   0  0  2  0  0  0  0  0  0  0  0  0
    2.2763    0.3605    0.0000 H   0  0  0  0  0  0  0  0  0  0  0  0
    2.1264    1.3071    0.0000 C   0  0  0  0  0  0  0  0  0  0  0  0
    3.0211    0.9636    0.0000 O   0  0  0  0  0  0  0  0  0  0  0  0
    0.9465   -0.1499    0.0000 C   0  0  1  0  0  0  0  0  0  0  0  0
    0.8964   -1.1069    0.0000 H   0  0  0  0  0  0  0  0  0  0  0  0
    1.7503   -0.6719    0.0000 O   0  0  0  0  0  0  0  0  0  0  0  0
    0.0000   -0.0000    0.0000 C   0  0  1  0  0  0  0  0  0  0  0  0
   -0.9257   -0.2480    0.0000 H   0  0  0  0  0  0  0  0  0  0  0  0
   -0.2480   -0.9257    0.0000 O   0  0  0  0  0  0  0  0  0  0  0  0
  1  2  1  0  0  0  0
  2  3  2  0  0  0  0
  3  4  1  0  0  0  0
  3  5  1  0  0  0  0
  5  9  1  0  0  0  0
  5  6  2  0  0  0  0
  6  7  1  0  0  0  0
  7  8  1  0  0  0  0
  7 10  1  0  0  0  0
  8  9  2  0  0  0  0
 10 11  1  1  0  0  0
 10 20  1  0  0  0  0
 10 12  1  0  0  0  0
 12 13  1  0  0  0  0
 13 14  1  1  0  0  0
 13 15  1  0  0  0  0
 13 17  1  0  0  0  0
 15 16  1  0  0  0  0
 17 18  1  6  0  0  0
 17 19  1  0  0  0  0
 17 20  1  0  0  0  0
 20 21  1  6  0  0  0
 20 22  1  0  0  0  0
M  RAD  2   6   2   9   2
M  END
>  <Supplier>
www.ambinter.com

>  <Ambinter_reference>
Amb33834778

>  <MW>
243.22

$$$$
Amb33836345
 OpenBabel08272102022D

 21 22  0  0  1  0  0  0  0  0999 V2000
    4.7347    1.2300    0.0000 O   0  0  0  0  0  0  0  0  0  0  0  0
    3.7834    1.3300    0.0000 C   0  0  0  0  0  0  0  0  0  0  0  0
    3.3943    2.2038    0.0000 O   0  0  0  0  0  0  0  0  0  0  0  0
    3.2211    0.5561    0.0000 C   0  0  0  0  0  0  0  0  0  0  0  0
    3.5167   -0.3536    0.0000 N   0  0  0  0  0  0  0  0  0  0  0  0
    2.7429   -0.9158    0.0000 C   0  0  0  0  0  0  0  0  0  0  0  0
    1.9690   -0.3536    0.0000 N   0  0  0  0  0  0  0  0  0  0  0  0
    2.2646    0.5561    0.0000 N   0  0  0  0  0  0  0  0  0  0  0  0
    0.1496   -0.9447    0.0000 C   0  0  2  0  0  0  0  0  0  0  0  0
    0.2583   -1.8951    0.0000 H   0  0  0  0  0  0  0  0  0  0  0  0
   -0.7026   -1.3790    0.0000 O   0  0  0  0  0  0  0  0  0  0  0  0
   -1.3790   -0.7026    0.0000 C   0  0  2  0  0  0  0  0  0  0  0  0
   -2.2720   -0.3598    0.0000 H   0  0  0  0  0  0  0  0  0  0  0  0
   -2.1224   -1.3046    0.0000 C   0  0  0  0  0  0  0  0  0  0  0  0
   -3.0153   -0.9618    0.0000 O   0  0  0  0  0  0  0  0  0  0  0  0
   -0.9447    0.1496    0.0000 C   0  0  1  0  0  0  0  0  0  0  0  0
   -0.8947    1.1048    0.0000 H   0  0  0  0  0  0  0  0  0  0  0  0
   -1.7470    0.6706    0.0000 O   0  0  0  0  0  0  0  0  0  0  0  0
   -0.0000   -0.0000    0.0000 C   0  0  1  0  0  0  0  0  0  0  0  0
    0.9239    0.2476    0.0000 H   0  0  0  0  0  0  0  0  0  0  0  0
    0.2476    0.9239    0.0000 O   0  0  0  0  0  0  0  0  0  0  0  0
  1  2  1  0  0  0  0
  2  3  2  0  0  0  0
  2  4  1  0  0  0  0
  4  8  2  0  0  0  0
  4  5  1  0  0  0  0
  5  6  2  0  0  0  0
  6  7  1  0  0  0  0
  7  8  1  0  0  0  0
  7  9  1  0  0  0  0
  9 10  1  1  0  0  0
  9 19  1  0  0  0  0
  9 11  1  0  0  0  0
 11 12  1  0  0  0  0
 12 13  1  1  0  0  0
 12 14  1  0  0  0  0
 12 16  1  0  0  0  0
 14 15  1  0  0  0  0
 16 17  1  6  0  0  0
 16 18  1  0  0  0  0
 16 19  1  0  0  0  0
 19 20  1  6  0  0  0
 19 21  1  0  0  0  0
M  RAD  2   5   2   8   2
M  END
>  <Supplier>
www.ambinter.com

>  <Ambinter_reference>
Amb33836345

>  <MW>
245.189

$$$$
Amb33836361
 OpenBabel08272102022D

 21 22  0  0  1  0  0  0  0  0999 V2000
   -4.6253    1.5848    0.0000 N   0  0  0  0  0  0  0  0  0  0  0  0
   -4.4264    0.6492    0.0000 C   0  0  0  0  0  0  0  0  0  0  0  0
   -5.1373    0.0091    0.0000 O   0  0  0  0  0  0  0  0  0  0  0  0
   -3.5167    0.3536    0.0000 C   0  0  0  0  0  0  0  0  0  0  0  0
   -2.7429    0.9158    0.0000 N   0  0  0  0  0  0  0  0  0  0  0  0
   -1.9690    0.3536    0.0000 N   0  0  0  0  0  0  0  0  0  0  0  0
   -2.2646   -0.5561    0.0000 C   0  0  0  0  0  0  0  0  0  0  0  0
   -3.2211   -0.5561    0.0000 N   0  0  0  0  0  0  0  0  0  0  0  0
   -0.1496    0.9447    0.0000 C   0  0  2  0  0  0  0  0  0  0  0  0
   -0.2583    1.8951    0.0000 H   0  0  0  0  0  0  0  0  0  0  0  0
    0.7026    1.3790    0.0000 O   0  0  0  0  0  0  0  0  0  0  0  0
    1.3790    0.7026    0.0000 C   0  0  2  0  0  0  0  0  0  0  0  0
    2.2720    0.3598    0.0000 H   0  0  0  0  0  0  0  0  0  0  0  0
    2.1224    1.3046    0.0000 C   0  0  0  0  0  0  0  0  0  0  0  0
    3.0153    0.9618    0.0000 O   0  0  0  0  0  0  0  0  0  0  0  0
    0.9447   -0.1496    0.0000 C   0  0  1  0  0  0  0  0  0  0  0  0
    0.8947   -1.1048    0.0000 H   0  0  0  0  0  0  0  0  0  0  0  0
    1.7470   -0.6706    0.0000 O   0  0  0  0  0  0  0  0  0  0  0  0
    0.0000   -0.0000    0.0000 C   0  0  1  0  0  0  0  0  0  0  0  0
   -0.9239   -0.2476    0.0000 H   0  0  0  0  0  0  0  0  0  0  0  0
   -0.2476   -0.9239    0.0000 O   0  0  0  0  0  0  0  0  0  0  0  0
  1  2  1  0  0  0  0
  2  3  2  0  0  0  0
  2  4  1  0  0  0  0
  4  8  1  0  0  0  0
  4  5  2  0  0  0  0
  5  6  1  0  0  0  0
  6  7  1  0  0  0  0
  6  9  1  0  0  0  0
  7  8  2  0  0  0  0
  9 10  1  1  0  0  0
  9 19  1  0  0  0  0
  9 11  1  0  0  0  0
 11 12  1  0  0  0  0
 12 13  1  1  0  0  0
 12 14  1  0  0  0  0
 12 16  1  0  0  0  0
 14 15  1  0  0  0  0
 16 17  1  6  0  0  0
 16 18  1  0  0  0  0
 16 19  1  0  0  0  0
 19 20  1  6  0  0  0
 19 21  1  0  0  0  0
M  RAD  2   5   2   8   2
M  ISO  2   2  13   4  13
M  END
>  <Supplier>
www.ambinter.com

>  <Ambinter_reference>
Amb33836361

>  <MW>
246.19

$$$$
Amb33836362
 OpenBabel08272102022D

 25 26  0  0  1  0  0  0  0  0999 V2000
    9.0143   -0.0041    0.0000 N   0  0  0  0  0  0  0  0  0  0  0  0
    8.0841    0.2451    0.0000 C   0  0  0  0  0  0  0  0  0  0  0  0
    7.8349    1.1753    0.0000 O   0  0  0  0  0  0  0  0  0  0  0  0
    7.4032   -0.4358    0.0000 C   0  0  0  0  0  0  0  0  0  0  0  0
    7.5538   -1.3869    0.0000 N   0  0  0  0  0  0  0  0  0  0  0  0
    6.6958   -1.8241    0.0000 C   0  0  0  0  0  0  0  0  0  0  0  0
    6.0149   -1.1432    0.0000 N   0  0  0  0  0  0  0  0  0  0  0  0
    6.4521   -0.2852    0.0000 N   0  0  0  0  0  0  0  0  0  0  0  0
    4.1127   -1.4444    0.0000 C   0  0  2  0  0  0  0  0  0  0  0  0
    4.0711   -2.4065    0.0000 H   0  0  0  0  0  0  0  0  0  0  0  0
    3.1969   -1.7420    0.0000 O   0  0  0  0  0  0  0  0  0  0  0  0
    2.6309   -0.9630    0.0000 C   0  0  2  0  0  0  0  0  0  0  0  0
    1.7969   -0.4815    0.0000 H   0  0  0  0  0  0  0  0  0  0  0  0
    1.7969   -1.4444    0.0000 C   0  0  0  0  0  0  0  0  0  0  0  0
    0.9630   -0.9630    0.0000 O   0  0  0  0  0  0  0  0  0  0  0  0
    0.9630   -0.0000    0.0000 S   0  0  0  0  0  0  0  0  0  0  0  0
    1.9259    0.0000    0.0000 N   0  0  0  0  0  0  0  0  0  0  0  0
    0.9630    0.9630    0.0000 O   0  0  0  0  0  0  0  0  0  0  0  0
   -0.0000   -0.0000    0.0000 O   0  0  0  0  0  0  0  0  0  0  0  0
    3.1969   -0.1839    0.0000 C   0  0  1  0  0  0  0  0  0  0  0  0
    3.3971    0.7580    0.0000 H   0  0  0  0  0  0  0  0  0  0  0  0
    2.4813    0.4604    0.0000 O   0  0  0  0  0  0  0  0  0  0  0  0
    4.1127   -0.4815    0.0000 C   0  0  1  0  0  0  0  0  0  0  0  0
    5.0704   -0.3808    0.0000 H   0  0  0  0  0  0  0  0  0  0  0  0
    4.5044    0.3982    0.0000 O   0  0  0  0  0  0  0  0  0  0  0  0
  1  2  1  0  0  0  0
  2  3  2  0  0  0  0
  2  4  1  0  0  0  0
  4  8  2  0  0  0  0
  4  5  1  0  0  0  0
  5  6  2  0  0  0  0
  6  7  1  0  0  0  0
  7  8  1  0  0  0  0
  7  9  1  0  0  0  0
  9 10  1  1  0  0  0
  9 23  1  0  0  0  0
  9 11  1  0  0  0  0
 11 12  1  0  0  0  0
 12 13  1  1  0  0  0
 12 14  1  0  0  0  0
 12 20  1  0  0  0  0
 14 15  1  0  0  0  0
 15 16  1  0  0  0  0
 16 17  1  0  0  0  0
 16 18  2  0  0  0  0
 16 19  2  0  0  0  0
 20 21  1  6  0  0  0
 20 22  1  0  0  0  0
 20 23  1  0  0  0  0
 23 24  1  6  0  0  0
 23 25  1  0  0  0  0
M  RAD  2   5   2   8   2
M  END
>  <Supplier>
www.ambinter.com

>  <Ambinter_reference>
Amb33836362

>  <MW>
323.283

$$$$
Amb33836363
 OpenBabel08272102022D

 30 31  0  0  1  0  0  0  0  0999 V2000
    5.3366   -0.3565    0.0000 C   0  0  0  0  0  0  0  0  0  0  0  0
    4.7919    0.4821    0.0000 C   0  0  0  0  0  0  0  0  0  0  0  0
    5.2459    1.3731    0.0000 O   0  0  0  0  0  0  0  0  0  0  0  0
    3.7933    0.4298    0.0000 O   0  0  0  0  0  0  0  0  0  0  0  0
    3.3393   -0.4612    0.0000 C   0  0  2  0  0  0  0  0  0  0  0  0
    4.1222   -1.0834    0.0000 H   0  0  0  0  0  0  0  0  0  0  0  0
    3.0303   -1.4123    0.0000 C   0  0  1  0  0  0  0  0  0  0  0  0
    3.1348   -2.4068    0.0000 H   0  0  0  0  0  0  0  0  0  0  0  0
    3.9439   -1.8190    0.0000 C   0  0  0  0  0  0  0  0  0  0  0  0
    4.0484   -2.8135    0.0000 O   0  0  0  0  0  0  0  0  0  0  0  0
    3.2394   -3.4013    0.0000 C   0  0  0  0  0  0  0  0  0  0  0  0
    2.3258   -2.9946    0.0000 C   0  0  0  0  0  0  0  0  0  0  0  0
    3.3439   -4.3958    0.0000 O   0  0  0  0  0  0  0  0  0  0  0  0
    2.0303   -1.4123    0.0000 O   0  0  0  0  0  0  0  0  0  0  0  0
    1.7213   -0.4612    0.0000 C   0  0  2  0  0  0  0  0  0  0  0  0
    1.0522    0.2819    0.0000 H   0  0  0  0  0  0  0  0  0  0  0  0
    2.5303    0.1266    0.0000 C   0  0  2  0  0  0  0  0  0  0  0  0
    3.0303    0.9926    0.0000 H   0  0  0  0  0  0  0  0  0  0  0  0
    2.0303    0.9926    0.0000 O   0  0  0  0  0  0  0  0  0  0  0  0
    1.0303    0.9926    0.0000 C   0  0  0  0  0  0  0  0  0  0  0  0
    0.5303    1.8586    0.0000 C   0  0  0  0  0  0  0  0  0  0  0  0
    0.5303    0.1266    0.0000 O   0  0  0  0  0  0  0  0  0  0  0  0
    0.7431   -0.6691    0.0000 N   0  0  0  0  0  0  0  0  0  0  0  0
    0.3364   -1.5827    0.0000 C   0  0  0  0  0  0  0  0  0  0  0  0
   -0.6581   -1.4781    0.0000 N   0  0  0  0  0  0  0  0  0  0  0  0
   -0.8660   -0.5000    0.0000 C   0  0  0  0  0  0  0  0  0  0  0  0
   -0.0000   -0.0000    0.0000 N   0  0  0  0  0  0  0  0  0  0  0  0
   -1.7796   -0.0933    0.0000 C   0  0  0  0  0  0  0  0  0  0  0  0
   -1.8841    0.9013    0.0000 N   0  0  0  0  0  0  0  0  0  0  0  0
   -2.5886   -0.6810    0.0000 O   0  0  0  0  0  0  0  0  0  0  0  0
  1  2  1  0  0  0  0
  2  3  2  0  0  0  0
  2  4  1  0  0  0  0
  4  5  1  0  0  0  0
  5  6  1  1  0  0  0
  5 17  1  0  0  0  0
  5  7  1  0  0  0  0
  7  8  1  6  0  0  0
  7  9  1  0  0  0  0
  7 14  1  0  0  0  0
  9 10  1  0  0  0  0
 10 11  1  0  0  0  0
 11 12  1  0  0  0  0
 11 13  2  0  0  0  0
 14 15  1  0  0  0  0
 15 16  1  6  0  0  0
 15 17  1  0  0  0  0
 15 23  1  0  0  0  0
 17 18  1  1  0  0  0
 17 19  1  0  0  0  0
 19 20  1  0  0  0  0
 20 21  1  0  0  0  0
 20 22  2  0  0  0  0
 23 27  1  0  0  0  0
 23 24  1  0  0  0  0
 24 25  2  0  0  0  0
 25 26  1  0  0  0  0
 26 27  2  0  0  0  0
 26 28  1  0  0  0  0
 28 29  1  0  0  0  0
 28 30  2  0  0  0  0
M  RAD  2  25   2  27   2
M  END
>  <Supplier>
www.ambinter.com

>  <Ambinter_reference>
Amb33836363

>  <MW>
370.315

$$$$
Amb33852228
 OpenBabel08272102022D

 29 30  0  0  1  0  0  0  0  0999 V2000
    3.0479    2.0584    0.0000 C   0  0  0  0  0  0  0  0  0  0  0  0
    2.0820    1.7996    0.0000 C   0  0  0  0  0  0  0  0  0  0  0  0
    1.3749    2.5067    0.0000 O   0  0  0  0  0  0  0  0  0  0  0  0
    1.8232    0.8337    0.0000 O   0  0  0  0  0  0  0  0  0  0  0  0
    2.5303    0.1266    0.0000 C   0  0  2  0  0  0  0  0  0  0  0  0
    3.3640    0.6789    0.0000 H   0  0  0  0  0  0  0  0  0  0  0  0
    3.3393   -0.4612    0.0000 C   0  0  2  0  0  0  0  0  0  0  0  0
    4.3175   -0.6691    0.0000 H   0  0  0  0  0  0  0  0  0  0  0  0
    4.0085    0.2819    0.0000 O   0  0  0  0  0  0  0  0  0  0  0  0
    4.9866    0.0740    0.0000 C   0  0  0  0  0  0  0  0  0  0  0  0
    5.2956   -0.8770    0.0000 C   0  0  0  0  0  0  0  0  0  0  0  0
    5.6557    0.8172    0.0000 O   0  0  0  0  0  0  0  0  0  0  0  0
    3.0303   -1.4123    0.0000 C   0  0  1  0  0  0  0  0  0  0  0  0
    3.1348   -2.4068    0.0000 H   0  0  0  0  0  0  0  0  0  0  0  0
    3.9439   -1.8190    0.0000 C   0  0  0  0  0  0  0  0  0  0  0  0
    4.0484   -2.8135    0.0000 O   0  0  0  0  0  0  0  0  0  0  0  0
    4.9619   -3.2203    0.0000 C   0  0  0  0  0  0  0  0  0  0  0  0
    5.0665   -4.2148    0.0000 C   0  0  0  0  0  0  0  0  0  0  0  0
    5.7709   -2.6325    0.0000 O   0  0  0  0  0  0  0  0  0  0  0  0
    2.0303   -1.4123    0.0000 O   0  0  0  0  0  0  0  0  0  0  0  0
    1.7213   -0.4612    0.0000 C   0  0  1  0  0  0  0  0  0  0  0  0
    1.0522    0.2819    0.0000 H   0  0  0  0  0  0  0  0  0  0  0  0
    0.7431   -0.6691    0.0000 N   0  0  0  0  0  0  0  0  0  0  0  0
    0.3364   -1.5827    0.0000 C   0  0  0  0  0  0  0  0  0  0  0  0
   -0.6581   -1.4781    0.0000 N   0  0  0  0  0  0  0  0  0  0  0  0
   -0.8660   -0.5000    0.0000 C   0  0  0  0  0  0  0  0  0  0  0  0
   -1.7796   -0.0933    0.0000 C   0  0  0  0  0  0  0  0  0  0  0  0
   -2.6931    0.3135    0.0000 N   0  0  0  0  0  0  0  0  0  0  0  0
    0.0000   -0.0000    0.0000 N   0  0  0  0  0  0  0  0  0  0  0  0
  1  2  1  0  0  0  0
  2  3  2  0  0  0  0
  2  4  1  0  0  0  0
  4  5  1  0  0  0  0
  5  6  1  1  0  0  0
  5 21  1  0  0  0  0
  5  7  1  0  0  0  0
  7  8  1  1  0  0  0
  7  9  1  0  0  0  0
  7 13  1  0  0  0  0
  9 10  1  0  0  0  0
 10 11  1  0  0  0  0
 10 12  2  0  0  0  0
 13 14  1  6  0  0  0
 13 15  1  0  0  0  0
 13 20  1  0  0  0  0
 15 16  1  0  0  0  0
 16 17  1  0  0  0  0
 17 18  1  0  0  0  0
 17 19  2  0  0  0  0
 20 21  1  0  0  0  0
 21 22  1  6  0  0  0
 21 23  1  0  0  0  0
 23 29  1  0  0  0  0
 23 24  1  0  0  0  0
 24 25  2  0  0  0  0
 25 26  1  0  0  0  0
 26 27  1  0  0  0  0
 26 29  2  0  0  0  0
 27 28  3  0  0  0  0
M  RAD  2  25   2  29   2
M  END
>  <Supplier>
www.ambinter.com

>  <Ambinter_reference>
Amb33852228

>  <MW>
352.299

$$$$
Amb33853602
 OpenBabel08272102022D

 19 20  0  0  1  0  0  0  0  0999 V2000
   -3.8845    1.9658    0.0000 N   0  0  0  0  0  0  0  0  0  0  0  0
   -3.6766    0.9877    0.0000 C   0  0  0  0  0  0  0  0  0  0  0  0
   -4.4197    0.3186    0.0000 O   0  0  0  0  0  0  0  0  0  0  0  0
   -2.7255    0.6787    0.0000 C   0  0  0  0  0  0  0  0  0  0  0  0
   -1.9165    1.2665    0.0000 N   0  0  0  0  0  0  0  0  0  0  0  0
   -1.1075    0.6787    0.0000 N   0  0  0  0  0  0  0  0  0  0  0  0
   -1.4165   -0.2724    0.0000 C   0  0  0  0  0  0  0  0  0  0  0  0
   -2.4165   -0.2724    0.0000 N   0  0  0  0  0  0  0  0  0  0  0  0
   -0.1564    0.9877    0.0000 C   0  0  1  0  0  0  0  0  0  0  0  0
   -0.2701    1.9812    0.0000 H   0  0  0  0  0  0  0  0  0  0  0  0
    0.7346    1.4417    0.0000 C   0  0  0  0  0  0  0  0  0  0  0  0
    1.4417    0.7346    0.0000 C   0  0  2  0  0  0  0  0  0  0  0  0
    2.3753    0.3762    0.0000 H   0  0  0  0  0  0  0  0  0  0  0  0
    2.2188    1.3639    0.0000 O   0  0  0  0  0  0  0  0  0  0  0  0
    0.9877   -0.1564    0.0000 C   0  0  1  0  0  0  0  0  0  0  0  0
    0.9354   -1.1551    0.0000 H   0  0  0  0  0  0  0  0  0  0  0  0
    1.8264   -0.7011    0.0000 C   0  0  0  0  0  0  0  0  0  0  0  0
    2.7174   -0.2471    0.0000 O   0  0  0  0  0  0  0  0  0  0  0  0
    0.0000   -0.0000    0.0000 O   0  0  0  0  0  0  0  0  0  0  0  0
  1  2  1  0  0  0  0
  2  3  2  0  0  0  0
  2  4  1  0  0  0  0
  4  8  1  0  0  0  0
  4  5  2  0  0  0  0
  5  6  1  0  0  0  0
  6  7  1  0  0  0  0
  6  9  1  0  0  0  0
  7  8  2  0  0  0  0
  9 10  1  6  0  0  0
  9 19  1  0  0  0  0
  9 11  1  0  0  0  0
 11 12  1  0  0  0  0
 12 13  1  1  0  0  0
 12 14  1  0  0  0  0
 12 15  1  0  0  0  0
 15 16  1  6  0  0  0
 15 17  1  0  0  0  0
 15 19  1  0  0  0  0
 17 18  1  0  0  0  0
M  RAD  2   5   2   8   2
M  END
>  <Supplier>
www.ambinter.com

>  <Ambinter_reference>
Amb33853602

>  <MW>
228.205

$$$$
Amb33921149
 OpenBabel08272102022D

 34 32  0  0  1  0  0  0  0  0999 V2000
   10.8170   -0.5000    0.0000 Na  0  3  0  0  0 15  0  0  0  0  0  0
   -0.5872    2.8135    0.0000 Na  0  3  0  0  0 15  0  0  0  0  0  0
    9.8170   -0.5000    0.0000 Na  0  3  0  0  0 15  0  0  0  0  0  0
    1.9526   -0.5000    0.0000 N   0  0  0  0  0  0  0  0  0  0  0  0
    1.4986   -1.3910    0.0000 C   0  0  0  0  0  0  0  0  0  0  0  0
    0.5000   -1.4433    0.0000 O   0  0  0  0  0  0  0  0  0  0  0  0
    2.0433   -2.2297    0.0000 C   0  0  0  0  0  0  0  0  0  0  0  0
    3.0419   -2.2820    0.0000 N   0  0  0  0  0  0  0  0  0  0  0  0
    3.3007   -3.2479    0.0000 N   0  0  0  0  0  0  0  0  0  0  0  0
    2.4620   -3.7926    0.0000 C   0  0  0  0  0  0  0  0  0  0  0  0
    1.6849   -3.1633    0.0000 N   0  0  0  0  0  0  0  0  0  0  0  0
    4.2343   -3.6063    0.0000 C   0  0  2  0  0  0  0  0  0  0  0  0
    4.7712   -2.7627    0.0000 H   0  0  0  0  0  0  0  0  0  0  0  0
    5.2124   -3.8142    0.0000 O   0  0  0  0  0  0  0  0  0  0  0  0
    5.3170   -4.8087    0.0000 C   0  0  2  0  0  0  0  0  0  0  0  0
    5.8170   -5.6748    0.0000 H   0  0  0  0  0  0  0  0  0  0  0  0
    6.3170   -4.8087    0.0000 C   0  0  0  0  0  0  0  0  0  0  0  0
    6.8170   -3.9427    0.0000 O   0  0  0  0  0  0  0  0  0  0  0  0
    7.8170   -3.9427    0.0000 P   0  0  3  0  0  0  0  0  0  0  0  0
    7.8170   -4.9427    0.0000 O   0  5  0  0  0  0  0  0  0  0  0  0
    8.8170   -3.9427    0.0000 O   0  0  0  0  0  0  0  0  0  0  0  0
    7.8170   -2.9427    0.0000 O   0  0  0  0  0  0  0  0  0  0  0  0
    7.8170   -1.9427    0.0000 P   0  0  3  0  0  0  0  0  0  0  0  0
    8.8170   -1.9427    0.0000 O   0  5  0  0  0  0  0  0  0  0  0  0
    7.8170   -0.9427    0.0000 O   0  0  0  0  0  0  0  0  0  0  0  0
    6.8170   -1.9427    0.0000 O   0  0  0  0  0  0  0  0  0  0  0  0
    5.8170   -1.9427    0.0000 P   0  0  3  0  0  0  0  0  0  0  0  0
    5.8170   -0.9427    0.0000 O   0  5  0  0  0  0  0  0  0  0  0  0
    4.8170   -1.9427    0.0000 O   0  0  0  0  0  0  0  0  0  0  0  0
    5.8170   -2.9427    0.0000 O   0  0  0  0  0  0  0  0  0  0  0  0
    4.4034   -5.2155    0.0000 C   0  0  3  0  0  0  0  0  0  0  0  0
    4.1955   -6.1936    0.0000 O   0  0  0  0  0  0  0  0  0  0  0  0
    3.7343   -4.4723    0.0000 C   0  0  3  0  0  0  0  0  0  0  0  0
    2.7398   -4.5769    0.0000 O   0  0  0  0  0  0  0  0  0  0  0  0
  4  5  1  0  0  0  0
  5  6  2  0  0  0  0
  5  7  1  0  0  0  0
  7 11  1  0  0  0  0
  7  8  2  0  0  0  0
  8  9  1  0  0  0  0
  9 10  1  0  0  0  0
  9 12  1  0  0  0  0
 10 11  2  0  0  0  0
 12 13  1  1  0  0  0
 12 33  1  0  0  0  0
 12 14  1  0  0  0  0
 14 15  1  0  0  0  0
 15 16  1  1  0  0  0
 15 17  1  0  0  0  0
 15 31  1  0  0  0  0
 17 18  1  0  0  0  0
 18 19  1  0  0  0  0
 19 20  1  0  0  0  0
 19 21  2  0  0  0  0
 19 22  1  0  0  0  0
 22 23  1  0  0  0  0
 23 24  1  0  0  0  0
 23 25  2  0  0  0  0
 23 26  1  0  0  0  0
 26 27  1  0  0  0  0
 27 28  1  0  0  0  0
 27 29  1  0  0  0  0
 27 30  2  0  0  0  0
 31 32  1  0  0  0  0
 31 33  1  0  0  0  0
 33 34  1  0  0  0  0
M  CHG  6   1   1   2   1   3   1  20  -1  24  -1  28  -1
M  END
>  <Supplier>
www.ambinter.com

>  <Ambinter_reference>
Amb33921149

>  <MW>
550.09

$$$$
Amb33921263
 OpenBabel08272102022D

 22 24  0  0  1  0  0  0  0  0999 V2000
    2.5733   -2.4325    0.0000 C   0  0  0  0  0  0  0  0  0  0  0  0
    1.6727   -1.9125    0.0000 C   0  0  0  0  0  0  0  0  0  0  0  0
    2.5701   -1.3870    0.0000 C   0  0  0  0  0  0  0  0  0  0  0  0
    1.6660   -0.9618    0.0000 O   0  0  0  0  0  0  0  0  0  0  0  0
    0.8331   -0.4810    0.0000 C   0  0  3  0  0  0  0  0  0  0  0  0
    0.0004   -1.9233    0.0000 C   0  0  3  0  0  0  0  0  0  0  0  0
    0.8333   -2.4041    0.0000 O   0  0  0  0  0  0  0  0  0  0  0  0
   -0.8327   -1.4423    0.0000 C   0  0  1  0  0  0  0  0  0  0  0  0
   -1.7301   -1.9678    0.0000 H   0  0  0  0  0  0  0  0  0  0  0  0
   -0.8394   -0.4916    0.0000 O   0  0  0  0  0  0  0  0  0  0  0  0
    0.0000   -0.0000    0.0000 C   0  0  2  0  0  0  0  0  0  0  0  0
   -0.0032    1.0400    0.0000 H   0  0  0  0  0  0  0  0  0  0  0  0
   -0.8331    0.4810    0.0000 C   0  0  0  0  0  0  0  0  0  0  0  0
   -1.3570   -0.3258    0.0000 O   0  0  0  0  0  0  0  0  0  0  0  0
   -1.6560   -0.9669    0.0000 N   0  0  0  0  0  0  0  0  0  0  0  0
   -2.5031   -1.3985    0.0000 C   0  0  0  0  0  0  0  0  0  0  0  0
   -3.1754   -0.7263    0.0000 N   0  0  0  0  0  0  0  0  0  0  0  0
   -2.7438    0.1209    0.0000 C   0  0  0  0  0  0  0  0  0  0  0  0
   -1.8048   -0.0279    0.0000 N   0  0  0  0  0  0  0  0  0  0  0  0
   -3.1754    0.9680    0.0000 C   0  0  0  0  0  0  0  0  0  0  0  0
   -2.6576    1.7653    0.0000 N   0  0  0  0  0  0  0  0  0  0  0  0
   -4.1248    1.0177    0.0000 O   0  0  0  0  0  0  0  0  0  0  0  0
  1  2  1  0  0  0  0
  2  7  1  0  0  0  0
  2  3  1  0  0  0  0
  2  4  1  0  0  0  0
  4  5  1  0  0  0  0
  5 11  1  0  0  0  0
  5  6  1  0  0  0  0
  6  7  1  0  0  0  0
  6  8  1  0  0  0  0
  8  9  1  1  0  0  0
  8 10  1  0  0  0  0
  8 15  1  0  0  0  0
 10 11  1  0  0  0  0
 11 12  1  1  0  0  0
 11 13  1  0  0  0  0
 13 14  1  0  0  0  0
 15 19  1  0  0  0  0
 15 16  1  0  0  0  0
 16 17  2  0  0  0  0
 17 18  1  0  0  0  0
 18 19  2  0  0  0  0
 18 20  1  0  0  0  0
 20 21  1  0  0  0  0
 20 22  2  0  0  0  0
M  RAD  2  17   2  19   2
M  END
>  <Supplier>
www.ambinter.com

>  <Ambinter_reference>
Amb33921263

>  <MW>
284.269

$$$$
Amb33927553
 OpenBabel08272102022D

 27 28  0  0  1  0  0  0  0  0999 V2000
   -5.8644    4.1748    0.0000 N   0  0  0  0  0  0  0  0  0  0  0  0
   -6.3183    3.2838    0.0000 C   0  0  0  0  0  0  0  0  0  0  0  0
   -7.3170    3.2314    0.0000 O   0  0  0  0  0  0  0  0  0  0  0  0
   -5.7737    2.4451    0.0000 C   0  0  0  0  0  0  0  0  0  0  0  0
   -4.7751    2.3928    0.0000 N   0  0  0  0  0  0  0  0  0  0  0  0
   -4.5163    1.4268    0.0000 N   0  0  0  0  0  0  0  0  0  0  0  0
   -5.3549    0.8822    0.0000 C   0  0  0  0  0  0  0  0  0  0  0  0
   -6.1321    1.5115    0.0000 N   0  0  0  0  0  0  0  0  0  0  0  0
   -3.5827    1.0685    0.0000 C   0  0  2  0  0  0  0  0  0  0  0  0
   -3.0457    1.9121    0.0000 H   0  0  0  0  0  0  0  0  0  0  0  0
   -2.6045    0.8605    0.0000 O   0  0  0  0  0  0  0  0  0  0  0  0
   -2.5000   -0.1340    0.0000 C   0  0  2  0  0  0  0  0  0  0  0  0
   -2.0000   -1.0000    0.0000 H   0  0  0  0  0  0  0  0  0  0  0  0
   -1.5000   -0.1340    0.0000 C   0  0  0  0  0  0  0  0  0  0  0  0
   -1.0000   -1.0000    0.0000 O   0  0  0  0  0  0  0  0  0  0  0  0
    0.0000   -1.0000    0.0000 P   0  0  3  0  0  0  0  0  0  0  0  0
   -0.0000   -2.0000    0.0000 O   0  0  0  0  0  0  0  0  0  0  0  0
    1.0000   -1.0000    0.0000 O   0  0  0  0  0  0  0  0  0  0  0  0
    0.0000   -0.0000    0.0000 O   0  0  0  0  0  0  0  0  0  0  0  0
    0.0000    1.0000    0.0000 P   0  0  0  0  0  0  0  0  0  0  0  0
    1.0000    1.0000    0.0000 O   0  0  0  0  0  0  0  0  0  0  0  0
   -0.0000    2.0000    0.0000 O   0  0  0  0  0  0  0  0  0  0  0  0
   -1.0000    1.0000    0.0000 O   0  0  0  0  0  0  0  0  0  0  0  0
   -3.4135   -0.5407    0.0000 C   0  0  3  0  0  0  0  0  0  0  0  0
   -3.6215   -1.5189    0.0000 O   0  0  0  0  0  0  0  0  0  0  0  0
   -4.0827    0.2024    0.0000 C   0  0  3  0  0  0  0  0  0  0  0  0
   -5.0772    0.0979    0.0000 O   0  0  0  0  0  0  0  0  0  0  0  0
  1  2  1  0  0  0  0
  2  3  2  0  0  0  0
  2  4  1  0  0  0  0
  4  8  1  0  0  0  0
  4  5  2  0  0  0  0
  5  6  1  0  0  0  0
  6  7  1  0  0  0  0
  6  9  1  0  0  0  0
  7  8  2  0  0  0  0
  9 10  1  1  0  0  0
  9 26  1  0  0  0  0
  9 11  1  0  0  0  0
 11 12  1  0  0  0  0
 12 13  1  1  0  0  0
 12 14  1  0  0  0  0
 12 24  1  0  0  0  0
 14 15  1  0  0  0  0
 15 16  1  0  0  0  0
 16 17  1  0  0  0  0
 16 18  2  0  0  0  0
 16 19  1  0  0  0  0
 19 20  1  0  0  0  0
 20 21  1  0  0  0  0
 20 22  1  0  0  0  0
 20 23  2  0  0  0  0
 24 25  1  0  0  0  0
 24 26  1  0  0  0  0
 26 27  1  0  0  0  0
M  END
>  <Supplier>
www.ambinter.com

>  <Ambinter_reference>
Amb33927553

>  <MW>
404.164

$$$$
Amb33928178
 OpenBabel08272102022D

 19 20  0  0  1  0  0  0  0  0999 V2000
   -3.8845    1.9658    0.0000 N   0  0  0  0  0  0  0  0  0  0  0  0
   -3.6766    0.9877    0.0000 C   0  0  0  0  0  0  0  0  0  0  0  0
   -4.4197    0.3186    0.0000 O   0  0  0  0  0  0  0  0  0  0  0  0
   -2.7255    0.6787    0.0000 C   0  0  0  0  0  0  0  0  0  0  0  0
   -1.9165    1.2665    0.0000 N   0  0  0  0  0  0  0  0  0  0  0  0
   -1.1075    0.6787    0.0000 N   0  0  0  0  0  0  0  0  0  0  0  0
   -1.4165   -0.2724    0.0000 C   0  0  0  0  0  0  0  0  0  0  0  0
   -2.4165   -0.2724    0.0000 N   0  0  0  0  0  0  0  0  0  0  0  0
   -0.1564    0.9877    0.0000 C   0  0  1  0  0  0  0  0  0  0  0  0
   -0.2701    1.9812    0.0000 H   0  0  0  0  0  0  0  0  0  0  0  0
    0.7346    1.4417    0.0000 O   0  0  0  0  0  0  0  0  0  0  0  0
    1.4417    0.7346    0.0000 C   0  0  2  0  0  0  0  0  0  0  0  0
    2.3753    0.3762    0.0000 H   0  0  0  0  0  0  0  0  0  0  0  0
    2.2188    1.3639    0.0000 C   0  0  0  0  0  0  0  0  0  0  0  0
    3.1524    1.0055    0.0000 O   0  0  0  0  0  0  0  0  0  0  0  0
    0.9877   -0.1564    0.0000 C   0  0  3  0  0  0  0  0  0  0  0  0
    1.4417   -1.0474    0.0000 O   0  0  0  0  0  0  0  0  0  0  0  0
    0.0000   -0.0000    0.0000 C   0  0  3  0  0  0  0  0  0  0  0  0
   -0.7071   -0.7071    0.0000 O   0  0  0  0  0  0  0  0  0  0  0  0
  1  2  1  0  0  0  0
  2  3  2  0  0  0  0
  2  4  1  0  0  0  0
  4  8  1  0  0  0  0
  4  5  2  0  0  0  0
  5  6  1  0  0  0  0
  6  7  1  0  0  0  0
  6  9  1  0  0  0  0
  7  8  2  0  0  0  0
  9 10  1  6  0  0  0
  9 18  1  0  0  0  0
  9 11  1  0  0  0  0
 11 12  1  0  0  0  0
 12 13  1  1  0  0  0
 12 14  1  0  0  0  0
 12 16  1  0  0  0  0
 14 15  1  0  0  0  0
 16 17  1  0  0  0  0
 16 18  1  0  0  0  0
 18 19  1  0  0  0  0
M  RAD  2   5   2   8   2
M  END
>  <Supplier>
www.ambinter.com

>  <Ambinter_reference>
Amb33928178

>  <MW>
244.205

$$$$
Amb33928305
 OpenBabel08272102022D

 19 20  0  0  1  0  0  0  0  0999 V2000
    2.7825    2.7665    0.0000 N   0  0  0  0  0  0  0  0  0  0  0  0
    1.9165    2.2665    0.0000 C   0  0  0  0  0  0  0  0  0  0  0  0
    1.0505    2.7665    0.0000 O   0  0  0  0  0  0  0  0  0  0  0  0
    1.9165    1.2665    0.0000 C   0  0  0  0  0  0  0  0  0  0  0  0
    2.7255    0.6787    0.0000 N   0  0  0  0  0  0  0  0  0  0  0  0
    2.4165   -0.2724    0.0000 C   0  0  0  0  0  0  0  0  0  0  0  0
    1.4165   -0.2724    0.0000 N   0  0  0  0  0  0  0  0  0  0  0  0
    1.1075    0.6787    0.0000 N   0  0  0  0  0  0  0  0  0  0  0  0
    0.1564    0.9877    0.0000 C   0  0  2  0  0  0  0  0  0  0  0  0
    0.2701    1.9812    0.0000 H   0  0  0  0  0  0  0  0  0  0  0  0
   -0.7346    1.4417    0.0000 O   0  0  0  0  0  0  0  0  0  0  0  0
   -1.4417    0.7346    0.0000 C   0  0  2  0  0  0  0  0  0  0  0  0
   -2.3753    0.3762    0.0000 H   0  0  0  0  0  0  0  0  0  0  0  0
   -2.2188    1.3639    0.0000 C   0  0  0  0  0  0  0  0  0  0  0  0
   -3.1524    1.0055    0.0000 O   0  0  0  0  0  0  0  0  0  0  0  0
   -0.9877   -0.1564    0.0000 C   0  0  3  0  0  0  0  0  0  0  0  0
   -1.4417   -1.0474    0.0000 O   0  0  0  0  0  0  0  0  0  0  0  0
    0.0000   -0.0000    0.0000 C   0  0  3  0  0  0  0  0  0  0  0  0
    0.7071   -0.7071    0.0000 O   0  0  0  0  0  0  0  0  0  0  0  0
  1  2  1  0  0  0  0
  2  3  2  0  0  0  0
  2  4  1  0  0  0  0
  4  8  1  0  0  0  0
  4  5  2  0  0  0  0
  5  6  1  0  0  0  0
  6  7  2  0  0  0  0
  7  8  1  0  0  0  0
  8  9  1  0  0  0  0
  9 10  1  6  0  0  0
  9 18  1  0  0  0  0
  9 11  1  0  0  0  0
 11 12  1  0  0  0  0
 12 13  1  6  0  0  0
 12 14  1  0  0  0  0
 12 16  1  0  0  0  0
 14 15  1  0  0  0  0
 16 17  1  0  0  0  0
 16 18  1  0  0  0  0
 18 19  1  0  0  0  0
M  RAD  2   5   2   7   2
M  END
>  <Supplier>
www.ambinter.com

>  <Ambinter_reference>
Amb33928305

>  <MW>
244.205

$$$$
Amb34895187
 OpenBabel08272102022D

 20 20  0  0  1  0  0  0  0  0999 V2000
   -1.8511    2.3209    0.0000 Cl  0  0  0  0  0  0  0  0  0  0  0  0
    1.0352   -0.5154    0.0000 N   0  0  0  0  0  0  0  0  0  0  0  0
    1.2431   -1.4935    0.0000 C   0  0  0  0  0  0  0  0  0  0  0  0
    0.5000   -2.1627    0.0000 N   0  0  0  0  0  0  0  0  0  0  0  0
    2.1942   -1.8025    0.0000 C   0  0  0  0  0  0  0  0  0  0  0  0
    3.0032   -1.2148    0.0000 N   0  0  0  0  0  0  0  0  0  0  0  0
    3.8122   -1.8025    0.0000 N   0  0  0  0  0  0  0  0  0  0  0  0
    3.5032   -2.7536    0.0000 C   0  0  0  0  0  0  0  0  0  0  0  0
    2.5032   -2.7536    0.0000 N   0  0  0  0  0  0  0  0  0  0  0  0
    4.7633   -1.4935    0.0000 C   0  0  2  0  0  0  0  0  0  0  0  0
    4.6497   -0.5000    0.0000 H   0  0  0  0  0  0  0  0  0  0  0  0
    5.6543   -1.0395    0.0000 O   0  0  0  0  0  0  0  0  0  0  0  0
    6.3614   -1.7466    0.0000 C   0  0  2  0  0  0  0  0  0  0  0  0
    7.2950   -2.1050    0.0000 H   0  0  0  0  0  0  0  0  0  0  0  0
    7.1386   -1.1173    0.0000 C   0  0  0  0  0  0  0  0  0  0  0  0
    8.0721   -1.4757    0.0000 O   0  0  0  0  0  0  0  0  0  0  0  0
    5.9074   -2.6376    0.0000 C   0  0  3  0  0  0  0  0  0  0  0  0
    6.3614   -3.5287    0.0000 O   0  0  0  0  0  0  0  0  0  0  0  0
    4.9197   -2.4812    0.0000 C   0  0  3  0  0  0  0  0  0  0  0  0
    4.2126   -3.1883    0.0000 O   0  0  0  0  0  0  0  0  0  0  0  0
  2  3  1  0  0  0  0
  3  4  2  0  0  0  0
  3  5  1  0  0  0  0
  5  9  1  0  0  0  0
  5  6  2  0  0  0  0
  6  7  1  0  0  0  0
  7  8  1  0  0  0  0
  7 10  1  0  0  0  0
  8  9  2  0  0  0  0
 10 11  1  1  0  0  0
 10 19  1  0  0  0  0
 10 12  1  0  0  0  0
 12 13  1  0  0  0  0
 13 14  1  1  0  0  0
 13 15  1  0  0  0  0
 13 17  1  0  0  0  0
 15 16  1  0  0  0  0
 17 18  1  0  0  0  0
 17 19  1  0  0  0  0
 19 20  1  0  0  0  0
M  RAD  2   6   2   9   2
M  END
>  <Supplier>
www.ambinter.com

>  <Ambinter_reference>
Amb34895187

>  <MW>
279.681

$$$$
Amb34905999
 OpenBabel08272102022D

 22 24  0  0  1  0  0  0  0  0999 V2000
    2.5733   -2.4325    0.0000 C   0  0  0  0  0  0  0  0  0  0  0  0
    1.6727   -1.9125    0.0000 C   0  0  0  0  0  0  0  0  0  0  0  0
    2.5701   -1.3870    0.0000 C   0  0  0  0  0  0  0  0  0  0  0  0
    1.6660   -0.9618    0.0000 O   0  0  0  0  0  0  0  0  0  0  0  0
    0.8331   -0.4810    0.0000 C   0  0  3  0  0  0  0  0  0  0  0  0
    0.0004   -1.9233    0.0000 C   0  0  3  0  0  0  0  0  0  0  0  0
    0.8333   -2.4041    0.0000 O   0  0  0  0  0  0  0  0  0  0  0  0
   -0.8327   -1.4423    0.0000 C   0  0  2  0  0  0  0  0  0  0  0  0
   -1.7301   -1.9678    0.0000 H   0  0  0  0  0  0  0  0  0  0  0  0
   -0.8394   -0.4916    0.0000 O   0  0  0  0  0  0  0  0  0  0  0  0
    0.0000   -0.0000    0.0000 C   0  0  2  0  0  0  0  0  0  0  0  0
   -0.0032    1.0400    0.0000 H   0  0  0  0  0  0  0  0  0  0  0  0
   -0.8331    0.4810    0.0000 C   0  0  0  0  0  0  0  0  0  0  0  0
   -1.3570   -0.3258    0.0000 O   0  0  0  0  0  0  0  0  0  0  0  0
   -1.6560   -0.9669    0.0000 N   0  0  0  0  0  0  0  0  0  0  0  0
   -2.5031   -1.3985    0.0000 C   0  0  0  0  0  0  0  0  0  0  0  0
   -3.1754   -0.7263    0.0000 N   0  0  0  0  0  0  0  0  0  0  0  0
   -2.7438    0.1209    0.0000 C   0  0  0  0  0  0  0  0  0  0  0  0
   -1.8048   -0.0279    0.0000 N   0  0  0  0  0  0  0  0  0  0  0  0
   -3.1754    0.9680    0.0000 C   0  0  0  0  0  0  0  0  0  0  0  0
   -2.6576    1.7653    0.0000 N   0  0  0  0  0  0  0  0  0  0  0  0
   -4.1248    1.0177    0.0000 O   0  0  0  0  0  0  0  0  0  0  0  0
  1  2  1  0  0  0  0
  2  7  1  0  0  0  0
  2  3  1  0  0  0  0
  2  4  1  0  0  0  0
  4  5  1  0  0  0  0
  5 11  1  0  0  0  0
  5  6  1  0  0  0  0
  6  7  1  0  0  0  0
  6  8  1  0  0  0  0
  8  9  1  6  0  0  0
  8 10  1  0  0  0  0
  8 15  1  0  0  0  0
 10 11  1  0  0  0  0
 11 12  1  1  0  0  0
 11 13  1  0  0  0  0
 13 14  1  0  0  0  0
 15 19  1  0  0  0  0
 15 16  1  0  0  0  0
 16 17  2  0  0  0  0
 17 18  1  0  0  0  0
 18 19  2  0  0  0  0
 18 20  1  0  0  0  0
 20 21  1  0  0  0  0
 20 22  2  0  0  0  0
M  RAD  2  17   2  19   2
M  END
>  <Supplier>
www.ambinter.com

>  <Ambinter_reference>
Amb34905999

>  <MW>
284.269

$$$$
Amb34906306
 OpenBabel08272102022D

 27 28  0  0  1  0  0  0  0  0999 V2000
    4.2624    1.1266    0.0000 C   0  0  0  0  0  0  0  0  0  0  0  0
    3.3963    1.6266    0.0000 C   0  0  0  0  0  0  0  0  0  0  0  0
    3.3963    2.6266    0.0000 O   0  0  0  0  0  0  0  0  0  0  0  0
    2.5303    1.1266    0.0000 O   0  0  0  0  0  0  0  0  0  0  0  0
    2.5303    0.1266    0.0000 C   0  0  3  0  0  0  0  0  0  0  0  0
    3.3393   -0.4612    0.0000 C   0  0  3  0  0  0  0  0  0  0  0  0
    4.2904   -0.1522    0.0000 O   0  0  0  0  0  0  0  0  0  0  0  0
    5.0335   -0.8213    0.0000 C   0  0  0  0  0  0  0  0  0  0  0  0
    4.8256   -1.7995    0.0000 C   0  0  0  0  0  0  0  0  0  0  0  0
    5.9846   -0.5123    0.0000 O   0  0  0  0  0  0  0  0  0  0  0  0
    3.0303   -1.4123    0.0000 C   0  0  1  0  0  0  0  0  0  0  0  0
    3.1348   -2.4068    0.0000 H   0  0  0  0  0  0  0  0  0  0  0  0
    3.9439   -1.8190    0.0000 C   0  0  0  0  0  0  0  0  0  0  0  0
    4.0484   -2.8135    0.0000 O   0  0  0  0  0  0  0  0  0  0  0  0
    3.2394   -3.4013    0.0000 C   0  0  0  0  0  0  0  0  0  0  0  0
    2.3258   -2.9946    0.0000 C   0  0  0  0  0  0  0  0  0  0  0  0
    3.3439   -4.3958    0.0000 O   0  0  0  0  0  0  0  0  0  0  0  0
    2.0303   -1.4123    0.0000 O   0  0  0  0  0  0  0  0  0  0  0  0
    1.7213   -0.4612    0.0000 C   0  0  1  0  0  0  0  0  0  0  0  0
    1.0522    0.2819    0.0000 H   0  0  0  0  0  0  0  0  0  0  0  0
    0.7431   -0.6691    0.0000 N   0  0  0  0  0  0  0  0  0  0  0  0
    0.3364   -1.5827    0.0000 C   0  0  0  0  0  0  0  0  0  0  0  0
   -0.6581   -1.4781    0.0000 N   0  0  0  0  0  0  0  0  0  0  0  0
   -0.8660   -0.5000    0.0000 C   0  0  0  0  0  0  0  0  0  0  0  0
   -1.7796   -0.0933    0.0000 C   0  0  0  0  0  0  0  0  0  0  0  0
   -2.6931    0.3135    0.0000 N   0  0  0  0  0  0  0  0  0  0  0  0
   -0.0000   -0.0000    0.0000 N   0  0  0  0  0  0  0  0  0  0  0  0
  1  2  1  0  0  0  0
  2  3  2  0  0  0  0
  2  4  1  0  0  0  0
  4  5  1  0  0  0  0
  5 19  1  0  0  0  0
  5  6  1  0  0  0  0
  6  7  1  0  0  0  0
  6 11  1  0  0  0  0
  7  8  1  0  0  0  0
  8  9  1  0  0  0  0
  8 10  2  0  0  0  0
 11 12  1  6  0  0  0
 11 13  1  0  0  0  0
 11 18  1  0  0  0  0
 13 14  1  0  0  0  0
 14 15  1  0  0  0  0
 15 16  1  0  0  0  0
 15 17  2  0  0  0  0
 18 19  1  0  0  0  0
 19 20  1  6  0  0  0
 19 21  1  0  0  0  0
 21 27  1  0  0  0  0
 21 22  1  0  0  0  0
 22 23  2  0  0  0  0
 23 24  1  0  0  0  0
 24 25  1  0  0  0  0
 24 27  2  0  0  0  0
 25 26  3  0  0  0  0
M  RAD  2  23   2  27   2
M  END
>  <Supplier>
www.ambinter.com

>  <Ambinter_reference>
Amb34906306

>  <MW>
352.299

$$$$
Amb34915276
 OpenBabel08272102022D

 21 22  0  0  1  0  0  0  0  0999 V2000
   -4.6253    1.5848    0.0000 N   0  0  0  0  0  0  0  0  0  0  0  0
   -4.4264    0.6492    0.0000 C   0  0  0  0  0  0  0  0  0  0  0  0
   -5.1373    0.0091    0.0000 O   0  0  0  0  0  0  0  0  0  0  0  0
   -3.5167    0.3536    0.0000 C   0  0  0  0  0  0  0  0  0  0  0  0
   -2.7429    0.9158    0.0000 N   0  0  0  0  0  0  0  0  0  0  0  0
   -1.9690    0.3536    0.0000 N   0  0  0  0  0  0  0  0  0  0  0  0
   -2.2646   -0.5561    0.0000 C   0  0  0  0  0  0  0  0  0  0  0  0
   -3.2211   -0.5561    0.0000 N   0  0  0  0  0  0  0  0  0  0  0  0
   -0.1496    0.9447    0.0000 C   0  0  2  0  0  0  0  0  0  0  0  0
   -0.2583    1.8951    0.0000 H   0  0  0  0  0  0  0  0  0  0  0  0
    0.7026    1.3790    0.0000 O   0  0  0  0  0  0  0  0  0  0  0  0
    1.3790    0.7026    0.0000 C   0  0  2  0  0  0  0  0  0  0  0  0
    2.2720    0.3598    0.0000 H   0  0  0  0  0  0  0  0  0  0  0  0
    2.1224    1.3046    0.0000 C   0  0  0  0  0  0  0  0  0  0  0  0
    3.0153    0.9618    0.0000 O   0  0  0  0  0  0  0  0  0  0  0  0
    0.9447   -0.1496    0.0000 C   0  0  2  0  0  0  0  0  0  0  0  0
    0.8947   -1.1048    0.0000 H   0  0  0  0  0  0  0  0  0  0  0  0
    1.7470   -0.6706    0.0000 O   0  0  0  0  0  0  0  0  0  0  0  0
    0.0000   -0.0000    0.0000 C   0  0  1  0  0  0  0  0  0  0  0  0
   -0.9239   -0.2476    0.0000 H   0  0  0  0  0  0  0  0  0  0  0  0
   -0.2476   -0.9239    0.0000 O   0  0  0  0  0  0  0  0  0  0  0  0
  1  2  1  0  0  0  0
  2  3  2  0  0  0  0
  2  4  1  0  0  0  0
  4  8  1  0  0  0  0
  4  5  2  0  0  0  0
  5  6  1  0  0  0  0
  6  7  1  0  0  0  0
  6  9  1  0  0  0  0
  7  8  2  0  0  0  0
  9 10  1  1  0  0  0
  9 19  1  0  0  0  0
  9 11  1  0  0  0  0
 11 12  1  0  0  0  0
 12 13  1  1  0  0  0
 12 14  1  0  0  0  0
 12 16  1  0  0  0  0
 14 15  1  0  0  0  0
 16 17  1  1  0  0  0
 16 18  1  0  0  0  0
 16 19  1  0  0  0  0
 19 20  1  6  0  0  0
 19 21  1  0  0  0  0
M  RAD  2   5   2   8   2
M  END
>  <Supplier>
www.ambinter.com

>  <Ambinter_reference>
Amb34915276

>  <MW>
244.205

$$$$
Amb34923908
 OpenBabel08272102022D

 22 22  0  0  1  0  0  0  0  0999 V2000
   -2.0007    2.4155    0.0000 Cl  0  0  0  0  0  0  0  0  0  0  0  0
    1.0120   -0.8103    0.0000 N   0  0  0  0  0  0  0  0  0  0  0  0
    1.2108   -1.7459    0.0000 C   0  0  0  0  0  0  0  0  0  0  0  0
    0.5000   -2.3859    0.0000 N   0  0  0  0  0  0  0  0  0  0  0  0
    2.1205   -2.0415    0.0000 C   0  0  0  0  0  0  0  0  0  0  0  0
    2.8944   -1.4793    0.0000 N   0  0  0  0  0  0  0  0  0  0  0  0
    3.6682   -2.0415    0.0000 N   0  0  0  0  0  0  0  0  0  0  0  0
    3.3726   -2.9512    0.0000 C   0  0  0  0  0  0  0  0  0  0  0  0
    2.4161   -2.9512    0.0000 N   0  0  0  0  0  0  0  0  0  0  0  0
    5.4876   -1.4503    0.0000 C   0  0  2  0  0  0  0  0  0  0  0  0
    5.3789   -0.5000    0.0000 H   0  0  0  0  0  0  0  0  0  0  0  0
    6.3399   -1.0161    0.0000 O   0  0  0  0  0  0  0  0  0  0  0  0
    7.0163   -1.6924    0.0000 C   0  0  2  0  0  0  0  0  0  0  0  0
    7.9093   -2.0352    0.0000 H   0  0  0  0  0  0  0  0  0  0  0  0
    7.7596   -1.0905    0.0000 C   0  0  0  0  0  0  0  0  0  0  0  0
    8.6526   -1.4333    0.0000 O   0  0  0  0  0  0  0  0  0  0  0  0
    6.5820   -2.5447    0.0000 C   0  0  1  0  0  0  0  0  0  0  0  0
    6.5320   -3.4999    0.0000 H   0  0  0  0  0  0  0  0  0  0  0  0
    7.3842   -3.0657    0.0000 O   0  0  0  0  0  0  0  0  0  0  0  0
    5.6373   -2.3951    0.0000 C   0  0  1  0  0  0  0  0  0  0  0  0
    4.7133   -2.6426    0.0000 H   0  0  0  0  0  0  0  0  0  0  0  0
    5.3897   -3.3190    0.0000 O   0  0  0  0  0  0  0  0  0  0  0  0
  2  3  1  0  0  0  0
  3  4  2  0  0  0  0
  3  5  1  0  0  0  0
  5  9  1  0  0  0  0
  5  6  2  0  0  0  0
  6  7  1  0  0  0  0
  7  8  1  0  0  0  0
  7 10  1  0  0  0  0
  8  9  2  0  0  0  0
 10 11  1  1  0  0  0
 10 20  1  0  0  0  0
 10 12  1  0  0  0  0
 12 13  1  0  0  0  0
 13 14  1  1  0  0  0
 13 15  1  0  0  0  0
 13 17  1  0  0  0  0
 15 16  1  0  0  0  0
 17 18  1  6  0  0  0
 17 19  1  0  0  0  0
 17 20  1  0  0  0  0
 20 21  1  6  0  0  0
 20 22  1  0  0  0  0
M  RAD  2   6   2   9   2
M  END
>  <Supplier>
www.ambinter.com

>  <Ambinter_reference>
Amb34923908

>  <MW>
279.681

$$$$
Amb35755541
 OpenBabel08272102022D

 23 24  0  0  1  0  0  0  0  0999 V2000
   -4.6421    1.5905    0.0000 N   0  0  0  0  0  0  0  0  0  0  0  0
   -4.4425    0.6515    0.0000 C   0  0  0  0  0  0  0  0  0  0  0  0
   -5.1560    0.0092    0.0000 O   0  0  0  0  0  0  0  0  0  0  0  0
   -3.5295    0.3549    0.0000 C   0  0  0  0  0  0  0  0  0  0  0  0
   -2.7529    0.9191    0.0000 N   0  0  0  0  0  0  0  0  0  0  0  0
   -1.9762    0.3549    0.0000 N   0  0  0  0  0  0  0  0  0  0  0  0
   -2.2729   -0.5581    0.0000 C   0  0  0  0  0  0  0  0  0  0  0  0
   -3.2329   -0.5581    0.0000 N   0  0  0  0  0  0  0  0  0  0  0  0
   -0.1502    0.9482    0.0000 C   0  0  3  0  0  0  0  0  0  0  0  0
   -0.2593    1.9020    0.0000 H   0  0  0  0  0  0  0  0  0  0  0  0
    0.7052    1.3840    0.0000 O   0  0  0  0  0  0  0  0  0  0  0  0
    1.3840    0.7052    0.0000 C   0  0  3  0  0  0  0  0  0  0  0  0
    2.2802    0.3612    0.0000 H   0  0  0  0  0  0  0  0  0  0  0  0
    2.1301    1.3093    0.0000 C   0  0  0  0  0  0  0  0  0  0  0  0
    2.4741    2.2056    0.0000 H   0  0  0  0  0  0  0  0  0  0  0  0
    1.5259    2.0554    0.0000 H   0  0  0  0  0  0  0  0  0  0  0  0
    3.0263    0.9653    0.0000 O   0  0  0  0  0  0  0  0  0  0  0  0
    0.9482   -0.1502    0.0000 C   0  0  3  0  0  0  0  0  0  0  0  0
    0.8979   -1.1089    0.0000 H   0  0  0  0  0  0  0  0  0  0  0  0
    1.7533   -0.6730    0.0000 O   0  0  0  0  0  0  0  0  0  0  0  0
    0.0000   -0.0000    0.0000 C   0  0  3  0  0  0  0  0  0  0  0  0
   -0.9273   -0.2485    0.0000 H   0  0  0  0  0  0  0  0  0  0  0  0
   -0.2485   -0.9273    0.0000 O   0  0  0  0  0  0  0  0  0  0  0  0
  1  2  1  0  0  0  0
  2  3  2  0  0  0  0
  2  4  1  0  0  0  0
  4  8  1  0  0  0  0
  4  5  2  0  0  0  0
  5  6  1  0  0  0  0
  6  7  1  0  0  0  0
  6  9  1  0  0  0  0
  7  8  2  0  0  0  0
  9 10  1  0  0  0  0
  9 21  1  0  0  0  0
  9 11  1  0  0  0  0
 11 12  1  0  0  0  0
 12 13  1  0  0  0  0
 12 14  1  0  0  0  0
 12 18  1  0  0  0  0
 14 15  1  0  0  0  0
 14 16  1  0  0  0  0
 14 17  1  0  0  0  0
 18 19  1  0  0  0  0
 18 20  1  0  0  0  0
 18 21  1  0  0  0  0
 21 22  1  0  0  0  0
 21 23  1  0  0  0  0
M  RAD  2   5   2   8   2
M  ISO  5   9  13  12  13  14  13  18  13  21  13
M  END
>  <Supplier>
www.ambinter.com

>  <Ambinter_reference>
Amb35755541

>  <MW>
249.168

$$$$
Amb35791974
 OpenBabel08272102022D

 23 24  0  0  1  0  0  0  0  0999 V2000
   -4.6421    1.5905    0.0000 N   0  0  0  0  0  0  0  0  0  0  0  0
   -4.4425    0.6515    0.0000 C   0  0  0  0  0  0  0  0  0  0  0  0
   -5.1560    0.0092    0.0000 O   0  0  0  0  0  0  0  0  0  0  0  0
   -3.5295    0.3549    0.0000 C   0  0  0  0  0  0  0  0  0  0  0  0
   -2.7529    0.9191    0.0000 N   0  0  0  0  0  0  0  0  0  0  0  0
   -1.9762    0.3549    0.0000 N   0  0  0  0  0  0  0  0  0  0  0  0
   -2.2729   -0.5581    0.0000 C   0  0  0  0  0  0  0  0  0  0  0  0
   -3.2329   -0.5581    0.0000 N   0  0  0  0  0  0  0  0  0  0  0  0
   -0.1502    0.9482    0.0000 C   0  0  2  0  0  0  0  0  0  0  0  0
   -0.2593    1.9020    0.0000 H   0  0  0  0  0  0  0  0  0  0  0  0
    0.7052    1.3840    0.0000 O   0  0  0  0  0  0  0  0  0  0  0  0
    1.3840    0.7052    0.0000 C   0  0  2  0  0  0  0  0  0  0  0  0
    2.2802    0.3612    0.0000 H   0  0  0  0  0  0  0  0  0  0  0  0
    2.1301    1.3093    0.0000 C   0  0  0  0  0  0  0  0  0  0  0  0
    2.4741    2.2056    0.0000 H   0  0  0  0  0  0  0  0  0  0  0  0
    1.5259    2.0554    0.0000 H   0  0  0  0  0  0  0  0  0  0  0  0
    3.0263    0.9653    0.0000 O   0  0  0  0  0  0  0  0  0  0  0  0
    0.9482   -0.1502    0.0000 C   0  0  1  0  0  0  0  0  0  0  0  0
    0.8979   -1.1089    0.0000 H   0  0  0  0  0  0  0  0  0  0  0  0
    1.7533   -0.6730    0.0000 O   0  0  0  0  0  0  0  0  0  0  0  0
    0.0000   -0.0000    0.0000 C   0  0  1  0  0  0  0  0  0  0  0  0
   -0.9273   -0.2485    0.0000 H   0  0  0  0  0  0  0  0  0  0  0  0
   -0.2485   -0.9273    0.0000 O   0  0  0  0  0  0  0  0  0  0  0  0
  1  2  1  0  0  0  0
  2  3  2  0  0  0  0
  2  4  1  0  0  0  0
  4  8  1  0  0  0  0
  4  5  2  0  0  0  0
  5  6  1  0  0  0  0
  6  7  1  0  0  0  0
  6  9  1  0  0  0  0
  7  8  2  0  0  0  0
  9 10  1  1  0  0  0
  9 21  1  0  0  0  0
  9 11  1  0  0  0  0
 11 12  1  0  0  0  0
 12 13  1  1  0  0  0
 12 14  1  0  0  0  0
 12 18  1  0  0  0  0
 14 15  1  0  0  0  0
 14 16  1  0  0  0  0
 14 17  1  0  0  0  0
 18 19  1  6  0  0  0
 18 20  1  0  0  0  0
 18 21  1  0  0  0  0
 21 22  1  6  0  0  0
 21 23  1  0  0  0  0
M  RAD  2   5   2   8   2
M  ISO  5   9  13  12  13  14  13  18  13  21  13
M  END
>  <Supplier>
www.ambinter.com

>  <Ambinter_reference>
Amb35791974

>  <MW>
249.168

$$$$
Amb35795440
 OpenBabel08272102022D

 25 26  0  0  1  0  0  0  0  0999 V2000
   -6.5462    4.3652    0.0000 N   0  0  0  0  0  0  0  0  0  0  0  0
   -6.9833    3.5072    0.0000 C   0  0  0  0  0  0  0  0  0  0  0  0
   -7.9450    3.4568    0.0000 O   0  0  0  0  0  0  0  0  0  0  0  0
   -6.4589    2.6996    0.0000 C   0  0  0  0  0  0  0  0  0  0  0  0
   -5.4972    2.6492    0.0000 N   0  0  0  0  0  0  0  0  0  0  0  0
   -5.2480    1.7191    0.0000 N   0  0  0  0  0  0  0  0  0  0  0  0
   -6.0556    1.1946    0.0000 C   0  0  0  0  0  0  0  0  0  0  0  0
   -6.8040    1.8006    0.0000 N   0  0  0  0  0  0  0  0  0  0  0  0
   -3.4500    1.0289    0.0000 C   0  0  2  0  0  0  0  0  0  0  0  0
   -2.9329    1.8413    0.0000 H   0  0  0  0  0  0  0  0  0  0  0  0
   -2.5081    0.8287    0.0000 O   0  0  0  0  0  0  0  0  0  0  0  0
   -2.4074   -0.1290    0.0000 C   0  0  2  0  0  0  0  0  0  0  0  0
   -1.9259   -0.9630    0.0000 H   0  0  0  0  0  0  0  0  0  0  0  0
   -1.4444   -0.1290    0.0000 C   0  0  0  0  0  0  0  0  0  0  0  0
   -0.9630   -0.9630    0.0000 O   0  0  0  0  0  0  0  0  0  0  0  0
    0.0000   -0.9630    0.0000 P   0  0  0  0  0  0  0  0  0  0  0  0
    0.0000   -1.9259    0.0000 O   0  0  0  0  0  0  0  0  0  0  0  0
    0.9630   -0.9630    0.0000 O   0  0  0  0  0  0  0  0  0  0  0  0
    0.0000   -0.0000    0.0000 O   0  0  0  0  0  0  0  0  0  0  0  0
   -3.2871   -0.5207    0.0000 C   0  0  1  0  0  0  0  0  0  0  0  0
   -3.9315   -1.2363    0.0000 H   0  0  0  0  0  0  0  0  0  0  0  0
   -2.9895   -1.4365    0.0000 O   0  0  0  0  0  0  0  0  0  0  0  0
   -3.9315    0.1949    0.0000 C   0  0  1  0  0  0  0  0  0  0  0  0
   -4.8112    0.5866    0.0000 H   0  0  0  0  0  0  0  0  0  0  0  0
   -4.7105   -0.3711    0.0000 O   0  0  0  0  0  0  0  0  0  0  0  0
  1  2  1  0  0  0  0
  2  3  2  0  0  0  0
  2  4  1  0  0  0  0
  4  8  1  0  0  0  0
  4  5  2  0  0  0  0
  5  6  1  0  0  0  0
  6  7  1  0  0  0  0
  6  9  1  0  0  0  0
  7  8  2  0  0  0  0
  9 10  1  1  0  0  0
  9 23  1  0  0  0  0
  9 11  1  0  0  0  0
 11 12  1  0  0  0  0
 12 13  1  1  0  0  0
 12 14  1  0  0  0  0
 12 20  1  0  0  0  0
 14 15  1  0  0  0  0
 15 16  1  0  0  0  0
 16 17  1  0  0  0  0
 16 18  1  0  0  0  0
 16 19  2  0  0  0  0
 20 21  1  6  0  0  0
 20 22  1  0  0  0  0
 20 23  1  0  0  0  0
 23 24  1  6  0  0  0
 23 25  1  0  0  0  0
M  END
>  <Supplier>
www.ambinter.com

>  <Ambinter_reference>
Amb35795440

>  <MW>
324.185

$$$$
Amb35795447
 OpenBabel08272102022D

 33 34  0  0  1  0  0  0  0  0999 V2000
    6.6037   -6.3465    0.0000 N   0  0  0  0  0  0  0  0  0  0  0  0
    7.0447   -5.4809    0.0000 C   0  0  0  0  0  0  0  0  0  0  0  0
    8.0148   -5.4301    0.0000 O   0  0  0  0  0  0  0  0  0  0  0  0
    6.5156   -4.6662    0.0000 C   0  0  0  0  0  0  0  0  0  0  0  0
    5.5456   -4.6154    0.0000 N   0  0  0  0  0  0  0  0  0  0  0  0
    5.2941   -3.6770    0.0000 N   0  0  0  0  0  0  0  0  0  0  0  0
    6.1088   -3.1480    0.0000 C   0  0  0  0  0  0  0  0  0  0  0  0
    6.8638   -3.7593    0.0000 N   0  0  0  0  0  0  0  0  0  0  0  0
    3.4803   -2.9808    0.0000 C   0  0  2  0  0  0  0  0  0  0  0  0
    2.9587   -3.8003    0.0000 H   0  0  0  0  0  0  0  0  0  0  0  0
    2.5301   -2.7788    0.0000 O   0  0  0  0  0  0  0  0  0  0  0  0
    2.4286   -1.8127    0.0000 C   0  0  2  0  0  0  0  0  0  0  0  0
    1.9429   -0.9714    0.0000 H   0  0  0  0  0  0  0  0  0  0  0  0
    1.4571   -1.8127    0.0000 C   0  0  0  0  0  0  0  0  0  0  0  0
    0.9714   -0.9714    0.0000 O   0  0  0  0  0  0  0  0  0  0  0  0
    0.0000   -0.9714    0.0000 P   0  0  3  0  0  0  0  0  0  0  0  0
   -0.0000   -1.9429    0.0000 O   0  0  0  0  0  0  0  0  0  0  0  0
   -0.9714   -0.9714    0.0000 O   0  0  0  0  0  0  0  0  0  0  0  0
    0.0000    0.0000    0.0000 O   0  0  0  0  0  0  0  0  0  0  0  0
    0.0000    0.9714    0.0000 P   0  0  3  0  0  0  0  0  0  0  0  0
   -0.9714    0.9714    0.0000 O   0  0  0  0  0  0  0  0  0  0  0  0
    0.0000    1.9429    0.0000 O   0  0  0  0  0  0  0  0  0  0  0  0
    0.9714    0.9714    0.0000 O   0  0  0  0  0  0  0  0  0  0  0  0
    1.9429    0.9714    0.0000 P   0  0  0  0  0  0  0  0  0  0  0  0
    1.9429    1.9429    0.0000 O   0  0  0  0  0  0  0  0  0  0  0  0
    2.9143    0.9714    0.0000 O   0  0  0  0  0  0  0  0  0  0  0  0
    1.9429   -0.0000    0.0000 O   0  0  0  0  0  0  0  0  0  0  0  0
    3.3160   -1.4176    0.0000 C   0  0  1  0  0  0  0  0  0  0  0  0
    3.9660   -0.6957    0.0000 H   0  0  0  0  0  0  0  0  0  0  0  0
    3.0158   -0.4937    0.0000 O   0  0  0  0  0  0  0  0  0  0  0  0
    3.9660   -2.1395    0.0000 C   0  0  1  0  0  0  0  0  0  0  0  0
    4.8535   -2.5346    0.0000 H   0  0  0  0  0  0  0  0  0  0  0  0
    4.7519   -1.5685    0.0000 O   0  0  0  0  0  0  0  0  0  0  0  0
  1  2  1  0  0  0  0
  2  3  2  0  0  0  0
  2  4  1  0  0  0  0
  4  8  1  0  0  0  0
  4  5  2  0  0  0  0
  5  6  1  0  0  0  0
  6  7  1  0  0  0  0
  6  9  1  0  0  0  0
  7  8  2  0  0  0  0
  9 10  1  1  0  0  0
  9 31  1  0  0  0  0
  9 11  1  0  0  0  0
 11 12  1  0  0  0  0
 12 13  1  1  0  0  0
 12 14  1  0  0  0  0
 12 28  1  0  0  0  0
 14 15  1  0  0  0  0
 15 16  1  0  0  0  0
 16 17  1  0  0  0  0
 16 18  2  0  0  0  0
 16 19  1  0  0  0  0
 19 20  1  0  0  0  0
 20 21  1  0  0  0  0
 20 22  2  0  0  0  0
 20 23  1  0  0  0  0
 23 24  1  0  0  0  0
 24 25  1  0  0  0  0
 24 26  1  0  0  0  0
 24 27  2  0  0  0  0
 28 29  1  6  0  0  0
 28 30  1  0  0  0  0
 28 31  1  0  0  0  0
 31 32  1  6  0  0  0
 31 33  1  0  0  0  0
M  END
>  <Supplier>
www.ambinter.com

>  <Ambinter_reference>
Amb35795447

>  <MW>
484.144

$$$$
Amb35796525
 OpenBabel08272102022D

 29 30  0  0  1  0  0  0  0  0999 V2000
   -3.1413    2.6350    0.0000 C   0  0  0  0  0  0  0  0  0  0  0  0
   -3.8845    1.9658    0.0000 O   0  0  0  0  0  0  0  0  0  0  0  0
   -3.6766    0.9877    0.0000 C   0  0  0  0  0  0  0  0  0  0  0  0
   -4.4197    0.3186    0.0000 O   0  0  0  0  0  0  0  0  0  0  0  0
   -2.7255    0.6787    0.0000 C   0  0  0  0  0  0  0  0  0  0  0  0
   -1.9165    1.2665    0.0000 N   0  0  0  0  0  0  0  0  0  0  0  0
   -1.1075    0.6787    0.0000 N   0  0  0  0  0  0  0  0  0  0  0  0
   -1.4165   -0.2724    0.0000 C   0  0  0  0  0  0  0  0  0  0  0  0
   -2.4165   -0.2724    0.0000 N   0  0  0  0  0  0  0  0  0  0  0  0
   -0.1564    0.9877    0.0000 C   0  0  2  0  0  0  0  0  0  0  0  0
   -0.2701    1.9812    0.0000 H   0  0  0  0  0  0  0  0  0  0  0  0
    0.7346    1.4417    0.0000 O   0  0  0  0  0  0  0  0  0  0  0  0
    1.4417    0.7346    0.0000 C   0  0  2  0  0  0  0  0  0  0  0  0
    2.3753    0.3762    0.0000 H   0  0  0  0  0  0  0  0  0  0  0  0
    2.2188    1.3639    0.0000 C   0  0  0  0  0  0  0  0  0  0  0  0
    2.0624    2.3516    0.0000 O   0  0  0  0  0  0  0  0  0  0  0  0
    1.1288    2.7099    0.0000 C   0  0  0  0  0  0  0  0  0  0  0  0
    0.3517    2.0806    0.0000 C   0  0  0  0  0  0  0  0  0  0  0  0
    0.9724    3.6976    0.0000 O   0  0  0  0  0  0  0  0  0  0  0  0
    0.9877   -0.1564    0.0000 C   0  0  3  0  0  0  0  0  0  0  0  0
    1.4417   -1.0474    0.0000 O   0  0  0  0  0  0  0  0  0  0  0  0
    2.4403   -1.0998    0.0000 C   0  0  0  0  0  0  0  0  0  0  0  0
    2.8943   -1.9908    0.0000 C   0  0  0  0  0  0  0  0  0  0  0  0
    2.9849   -0.2611    0.0000 O   0  0  0  0  0  0  0  0  0  0  0  0
    0.0000   -0.0000    0.0000 C   0  0  3  0  0  0  0  0  0  0  0  0
   -0.7071   -0.7071    0.0000 O   0  0  0  0  0  0  0  0  0  0  0  0
   -0.4483   -1.6730    0.0000 C   0  0  0  0  0  0  0  0  0  0  0  0
   -1.1554   -2.3801    0.0000 C   0  0  0  0  0  0  0  0  0  0  0  0
    0.5176   -1.9319    0.0000 O   0  0  0  0  0  0  0  0  0  0  0  0
  1  2  1  0  0  0  0
  2  3  1  0  0  0  0
  3  4  2  0  0  0  0
  3  5  1  0  0  0  0
  5  9  1  0  0  0  0
  5  6  2  0  0  0  0
  6  7  1  0  0  0  0
  7  8  1  0  0  0  0
  7 10  1  0  0  0  0
  8  9  2  0  0  0  0
 10 11  1  1  0  0  0
 10 25  1  0  0  0  0
 10 12  1  0  0  0  0
 12 13  1  0  0  0  0
 13 14  1  1  0  0  0
 13 15  1  0  0  0  0
 13 20  1  0  0  0  0
 15 16  1  0  0  0  0
 16 17  1  0  0  0  0
 17 18  1  0  0  0  0
 17 19  2  0  0  0  0
 20 21  1  0  0  0  0
 20 25  1  0  0  0  0
 21 22  1  0  0  0  0
 22 23  1  0  0  0  0
 22 24  2  0  0  0  0
 25 26  1  0  0  0  0
 26 27  1  0  0  0  0
 27 28  1  0  0  0  0
 27 29  2  0  0  0  0
M  RAD  2   6   2   9   2
M  ISO  2   3  13   5  13
M  END
>  <Supplier>
www.ambinter.com

>  <Ambinter_reference>
Amb35796525

>  <MW>
387.311

$$$$
Amb35797982
 OpenBabel08272102022D

 33 34  0  0  1  0  0  0  0  0999 V2000
   -3.1413    2.6350    0.0000 C   0  0  0  0  0  0  0  0  0  0  0  0
   -3.8845    1.9658    0.0000 O   0  0  0  0  0  0  0  0  0  0  0  0
   -3.6766    0.9877    0.0000 C   0  0  0  0  0  0  0  0  0  0  0  0
   -4.4197    0.3186    0.0000 O   0  0  0  0  0  0  0  0  0  0  0  0
   -2.7255    0.6787    0.0000 C   0  0  0  0  0  0  0  0  0  0  0  0
   -1.9165    1.2665    0.0000 N   0  0  0  0  0  0  0  0  0  0  0  0
   -1.1075    0.6787    0.0000 N   0  0  0  0  0  0  0  0  0  0  0  0
   -1.4165   -0.2724    0.0000 C   0  0  0  0  0  0  0  0  0  0  0  0
   -2.4165   -0.2724    0.0000 N   0  0  0  0  0  0  0  0  0  0  0  0
   -0.1564    0.9877    0.0000 C   0  0  2  0  0  0  0  0  0  0  0  0
   -0.2701    1.9812    0.0000 H   0  0  0  0  0  0  0  0  0  0  0  0
    0.7346    1.4417    0.0000 O   0  0  0  0  0  0  0  0  0  0  0  0
    1.4417    0.7346    0.0000 C   0  0  2  0  0  0  0  0  0  0  0  0
    2.3753    0.3762    0.0000 H   0  0  0  0  0  0  0  0  0  0  0  0
    2.2188    1.3639    0.0000 C   0  0  0  0  0  0  0  0  0  0  0  0
    2.5772    2.2975    0.0000 H   0  0  0  0  0  0  0  0  0  0  0  0
    1.5895    2.1410    0.0000 H   0  0  0  0  0  0  0  0  0  0  0  0
    3.1524    1.0055    0.0000 O   0  0  0  0  0  0  0  0  0  0  0  0
    3.3088    0.0178    0.0000 C   0  0  0  0  0  0  0  0  0  0  0  0
    2.5317   -0.6115    0.0000 C   0  0  0  0  0  0  0  0  0  0  0  0
    4.2424   -0.3405    0.0000 O   0  0  0  0  0  0  0  0  0  0  0  0
    0.9877   -0.1564    0.0000 C   0  0  2  0  0  0  0  0  0  0  0  0
    0.9354   -1.1551    0.0000 H   0  0  0  0  0  0  0  0  0  0  0  0
    1.8264   -0.7011    0.0000 O   0  0  0  0  0  0  0  0  0  0  0  0
    1.7740   -1.6997    0.0000 C   0  0  0  0  0  0  0  0  0  0  0  0
    0.8830   -2.1537    0.0000 C   0  0  0  0  0  0  0  0  0  0  0  0
    2.6127   -2.2443    0.0000 O   0  0  0  0  0  0  0  0  0  0  0  0
    0.0000   -0.0000    0.0000 C   0  0  1  0  0  0  0  0  0  0  0  0
   -0.9659   -0.2588    0.0000 H   0  0  0  0  0  0  0  0  0  0  0  0
   -0.2588   -0.9659    0.0000 O   0  0  0  0  0  0  0  0  0  0  0  0
   -1.2247   -1.2247    0.0000 C   0  0  0  0  0  0  0  0  0  0  0  0
   -1.4836   -2.1907    0.0000 C   0  0  0  0  0  0  0  0  0  0  0  0
   -1.9319   -0.5176    0.0000 O   0  0  0  0  0  0  0  0  0  0  0  0
  1  2  1  0  0  0  0
  2  3  1  0  0  0  0
  3  4  2  0  0  0  0
  3  5  1  0  0  0  0
  5  9  1  0  0  0  0
  5  6  2  0  0  0  0
  6  7  1  0  0  0  0
  7  8  1  0  0  0  0
  7 10  1  0  0  0  0
  8  9  2  0  0  0  0
 10 11  1  1  0  0  0
 10 28  1  0  0  0  0
 10 12  1  0  0  0  0
 12 13  1  0  0  0  0
 13 14  1  1  0  0  0
 13 15  1  0  0  0  0
 13 22  1  0  0  0  0
 15 16  1  0  0  0  0
 15 17  1  0  0  0  0
 15 18  1  0  0  0  0
 18 19  1  0  0  0  0
 19 20  1  0  0  0  0
 19 21  2  0  0  0  0
 22 23  1  1  0  0  0
 22 24  1  0  0  0  0
 22 28  1  0  0  0  0
 24 25  1  0  0  0  0
 25 26  1  0  0  0  0
 25 27  2  0  0  0  0
 28 29  1  6  0  0  0
 28 30  1  0  0  0  0
 30 31  1  0  0  0  0
 31 32  1  0  0  0  0
 31 33  2  0  0  0  0
M  RAD  2   6   2   9   2
M  ISO  5  10  13  13  13  15  13  22  13  28  13
M  END
>  <Supplier>
www.ambinter.com

>  <Ambinter_reference>
Amb35797982

>  <MW>
390.289

$$$$
Amb35802672
 OpenBabel08272102022D

 19 20  0  0  1  0  0  0  0  0999 V2000
   -3.8845    1.9658    0.0000 N   0  0  0  0  0  0  0  0  0  0  0  0
   -3.6766    0.9877    0.0000 C   0  0  0  0  0  0  0  0  0  0  0  0
   -4.4197    0.3186    0.0000 O   0  0  0  0  0  0  0  0  0  0  0  0
   -2.7255    0.6787    0.0000 C   0  0  0  0  0  0  0  0  0  0  0  0
   -1.9165    1.2665    0.0000 N   0  0  0  0  0  0  0  0  0  0  0  0
   -1.1075    0.6787    0.0000 N   0  0  0  0  0  0  0  0  0  0  0  0
   -1.4165   -0.2724    0.0000 C   0  0  0  0  0  0  0  0  0  0  0  0
   -2.4165   -0.2724    0.0000 N   0  0  0  0  0  0  0  0  0  0  0  0
   -0.1564    0.9877    0.0000 C   0  0  2  0  0  0  0  0  0  0  0  0
   -0.2701    1.9812    0.0000 H   0  0  0  0  0  0  0  0  0  0  0  0
    0.7346    1.4417    0.0000 C   0  0  0  0  0  0  0  0  0  0  0  0
    1.4417    0.7346    0.0000 C   0  0  1  0  0  0  0  0  0  0  0  0
    2.3753    0.3762    0.0000 H   0  0  0  0  0  0  0  0  0  0  0  0
    2.2188    1.3639    0.0000 O   0  0  0  0  0  0  0  0  0  0  0  0
    0.9877   -0.1564    0.0000 C   0  0  2  0  0  0  0  0  0  0  0  0
    0.9354   -1.1551    0.0000 H   0  0  0  0  0  0  0  0  0  0  0  0
    1.8264   -0.7011    0.0000 C   0  0  0  0  0  0  0  0  0  0  0  0
    2.7174   -0.2471    0.0000 O   0  0  0  0  0  0  0  0  0  0  0  0
    0.0000   -0.0000    0.0000 O   0  0  0  0  0  0  0  0  0  0  0  0
  1  2  1  0  0  0  0
  2  3  2  0  0  0  0
  2  4  1  0  0  0  0
  4  8  1  0  0  0  0
  4  5  2  0  0  0  0
  5  6  1  0  0  0  0
  6  7  1  0  0  0  0
  6  9  1  0  0  0  0
  7  8  2  0  0  0  0
  9 10  1  1  0  0  0
  9 19  1  0  0  0  0
  9 11  1  0  0  0  0
 11 12  1  0  0  0  0
 12 13  1  6  0  0  0
 12 14  1  0  0  0  0
 12 15  1  0  0  0  0
 15 16  1  1  0  0  0
 15 17  1  0  0  0  0
 15 19  1  0  0  0  0
 17 18  1  0  0  0  0
M  RAD  2   5   2   8   2
M  END
>  <Supplier>
www.ambinter.com

>  <Ambinter_reference>
Amb35802672

>  <MW>
228.205

$$$$
Amb35806378
 OpenBabel08272102022D

 27 29  0  0  1  0  0  0  0  0999 V2000
   -3.3609   -0.9581    0.0000 C   0  0  0  0  0  0  0  0  0  0  0  0
   -2.5237   -1.4449    0.0000 C   0  0  0  0  0  0  0  0  0  0  0  0
   -2.5267   -2.4134    0.0000 O   0  0  0  0  0  0  0  0  0  0  0  0
   -1.6835   -0.9633    0.0000 O   0  0  0  0  0  0  0  0  0  0  0  0
   -0.8462   -1.4501    0.0000 C   0  0  0  0  0  0  0  0  0  0  0  0
   -0.0060   -0.9685    0.0000 C   0  0  2  0  0  0  0  0  0  0  0  0
   -0.0123   -1.9876    0.0000 H   0  0  0  0  0  0  0  0  0  0  0  0
    0.8424   -1.4583    0.0000 O   0  0  0  0  0  0  0  0  0  0  0  0
    1.6711   -0.9788    0.0000 C   0  0  1  0  0  0  0  0  0  0  0  0
    2.5524   -1.4908    0.0000 H   0  0  0  0  0  0  0  0  0  0  0  0
    1.6771   -0.0104    0.0000 C   0  0  1  0  0  0  0  0  0  0  0  0
    2.6962   -0.0167    0.0000 H   0  0  0  0  0  0  0  0  0  0  0  0
    1.6831    0.9584    0.0000 O   0  0  0  0  0  0  0  0  0  0  0  0
    0.8347    1.4482    0.0000 C   0  0  0  0  0  0  0  0  0  0  0  0
    0.8410    2.4673    0.0000 C   0  0  0  0  0  0  0  0  0  0  0  0
    1.7169    1.9585    0.0000 C   0  0  0  0  0  0  0  0  0  0  0  0
    0.0060    0.9688    0.0000 O   0  0  0  0  0  0  0  0  0  0  0  0
   -0.0000   -0.0000    0.0000 C   0  0  1  0  0  0  0  0  0  0  0  0
   -1.0191    0.0063    0.0000 H   0  0  0  0  0  0  0  0  0  0  0  0
    2.4999   -0.4994    0.0000 N   0  0  0  0  0  0  0  0  0  0  0  0
    2.2513    0.4252    0.0000 C   0  0  0  0  0  0  0  0  0  0  0  0
    3.0538    0.9473    0.0000 N   0  0  0  0  0  0  0  0  0  0  0  0
    3.7984    0.3454    0.0000 C   0  0  0  0  0  0  0  0  0  0  0  0
    3.4560   -0.5487    0.0000 N   0  0  0  0  0  0  0  0  0  0  0  0
    4.7230    0.5940    0.0000 C   0  0  0  0  0  0  0  0  0  0  0  0
    5.4006   -0.0824    0.0000 N   0  0  0  0  0  0  0  0  0  0  0  0
    4.9700    1.5190    0.0000 O   0  0  0  0  0  0  0  0  0  0  0  0
  1  2  1  0  0  0  0
  2  3  2  0  0  0  0
  2  4  1  0  0  0  0
  4  5  1  0  0  0  0
  5  6  1  0  0  0  0
  6  7  1  6  0  0  0
  6 18  1  0  0  0  0
  6  8  1  0  0  0  0
  8  9  1  0  0  0  0
  9 10  1  6  0  0  0
  9 11  1  0  0  0  0
  9 20  1  0  0  0  0
 11 12  1  1  0  0  0
 11 18  1  0  0  0  0
 11 13  1  0  0  0  0
 13 14  1  0  0  0  0
 14 15  1  0  0  0  0
 14 16  1  0  0  0  0
 14 17  1  0  0  0  0
 17 18  1  0  0  0  0
 18 19  1  1  0  0  0
 20 24  1  0  0  0  0
 20 21  1  0  0  0  0
 21 22  2  0  0  0  0
 22 23  1  0  0  0  0
 23 24  2  0  0  0  0
 23 25  1  0  0  0  0
 25 26  1  0  0  0  0
 25 27  2  0  0  0  0
M  RAD  2  22   2  24   2
M  END
>  <Supplier>
www.ambinter.com

>  <Ambinter_reference>
Amb35806378

>  <MW>
326.305

$$$$
Amb35816457
 OpenBabel08272102022D

 23 25  0  0  1  0  0  0  0  0999 V2000
    2.5692   -2.4286    0.0000 C   0  0  0  0  0  0  0  0  0  0  0  0
    1.6700   -1.9095    0.0000 C   0  0  0  0  0  0  0  0  0  0  0  0
    2.5660   -1.3848    0.0000 C   0  0  0  0  0  0  0  0  0  0  0  0
    1.6633   -0.9603    0.0000 O   0  0  0  0  0  0  0  0  0  0  0  0
    0.8318   -0.4802    0.0000 C   0  0  3  0  0  0  0  0  0  0  0  0
    0.0004   -1.9202    0.0000 C   0  0  1  0  0  0  0  0  0  0  0  0
   -0.5187   -2.8194    0.0000 H   0  0  0  0  0  0  0  0  0  0  0  0
    0.8320   -2.4003    0.0000 O   0  0  0  0  0  0  0  0  0  0  0  0
   -0.8314   -1.4400    0.0000 C   0  0  2  0  0  0  0  0  0  0  0  0
   -1.7287   -1.9623    0.0000 H   0  0  0  0  0  0  0  0  0  0  0  0
   -0.8380   -0.4908    0.0000 O   0  0  0  0  0  0  0  0  0  0  0  0
    0.0000   -0.0000    0.0000 C   0  0  1  0  0  0  0  0  0  0  0  0
   -0.0032    1.0383    0.0000 H   0  0  0  0  0  0  0  0  0  0  0  0
   -0.8318    0.4802    0.0000 C   0  0  0  0  0  0  0  0  0  0  0  0
   -1.3549   -0.3253    0.0000 O   0  0  0  0  0  0  0  0  0  0  0  0
   -1.6534   -0.9654    0.0000 N   0  0  0  0  0  0  0  0  0  0  0  0
   -2.4991   -1.3963    0.0000 C   0  0  0  0  0  0  0  0  0  0  0  0
   -3.1703   -0.7251    0.0000 N   0  0  0  0  0  0  0  0  0  0  0  0
   -2.7394    0.1207    0.0000 C   0  0  0  0  0  0  0  0  0  0  0  0
   -1.8019   -0.0278    0.0000 N   0  0  0  0  0  0  0  0  0  0  0  0
   -3.1703    0.9664    0.0000 C   0  0  0  0  0  0  0  0  0  0  0  0
   -2.6534    1.7625    0.0000 N   0  0  0  0  0  0  0  0  0  0  0  0
   -4.1182    1.0161    0.0000 O   0  0  0  0  0  0  0  0  0  0  0  0
  1  2  1  0  0  0  0
  2  8  1  0  0  0  0
  2  3  1  0  0  0  0
  2  4  1  0  0  0  0
  4  5  1  0  0  0  0
  5 12  1  0  0  0  0
  5  6  1  0  0  0  0
  6  7  1  6  0  0  0
  6  8  1  0  0  0  0
  6  9  1  0  0  0  0
  9 10  1  6  0  0  0
  9 11  1  0  0  0  0
  9 16  1  0  0  0  0
 11 12  1  0  0  0  0
 12 13  1  6  0  0  0
 12 14  1  0  0  0  0
 14 15  1  0  0  0  0
 16 20  1  0  0  0  0
 16 17  1  0  0  0  0
 17 18  2  0  0  0  0
 18 19  1  0  0  0  0
 19 20  2  0  0  0  0
 19 21  1  0  0  0  0
 21 22  1  0  0  0  0
 21 23  2  0  0  0  0
M  RAD  2  18   2  20   2
M  END
>  <Supplier>
www.ambinter.com

>  <Ambinter_reference>
Amb35816457

>  <MW>
284.269

$$$$
Amb35817064
 OpenBabel08272102022D

 21 22  0  0  1  0  0  0  0  0999 V2000
   -3.1413    2.6350    0.0000 C   0  0  0  0  0  0  0  0  0  0  0  0
   -3.8845    1.9658    0.0000 O   0  0  0  0  0  0  0  0  0  0  0  0
   -3.6766    0.9877    0.0000 C   0  0  0  0  0  0  0  0  0  0  0  0
   -4.4197    0.3186    0.0000 O   0  0  0  0  0  0  0  0  0  0  0  0
   -2.7255    0.6787    0.0000 C   0  0  0  0  0  0  0  0  0  0  0  0
   -1.9165    1.2665    0.0000 N   0  0  0  0  0  0  0  0  0  0  0  0
   -1.1075    0.6787    0.0000 N   0  0  0  0  0  0  0  0  0  0  0  0
   -1.4165   -0.2724    0.0000 C   0  0  0  0  0  0  0  0  0  0  0  0
   -2.4165   -0.2724    0.0000 N   0  0  0  0  0  0  0  0  0  0  0  0
   -0.1564    0.9877    0.0000 C   0  0  2  0  0  0  0  0  0  0  0  0
   -0.2701    1.9812    0.0000 H   0  0  0  0  0  0  0  0  0  0  0  0
    0.7346    1.4417    0.0000 O   0  0  0  0  0  0  0  0  0  0  0  0
    1.4417    0.7346    0.0000 C   0  0  2  0  0  0  0  0  0  0  0  0
    2.3753    0.3762    0.0000 H   0  0  0  0  0  0  0  0  0  0  0  0
    2.2188    1.3639    0.0000 C   0  0  0  0  0  0  0  0  0  0  0  0
    3.1524    1.0055    0.0000 O   0  0  0  0  0  0  0  0  0  0  0  0
    0.9877   -0.1564    0.0000 C   0  0  2  0  0  0  0  0  0  0  0  0
    0.9354   -1.1551    0.0000 H   0  0  0  0  0  0  0  0  0  0  0  0
    1.8264   -0.7011    0.0000 O   0  0  0  0  0  0  0  0  0  0  0  0
    0.0000   -0.0000    0.0000 C   0  0  3  0  0  0  0  0  0  0  0  0
   -0.7071   -0.7071    0.0000 O   0  0  0  0  0  0  0  0  0  0  0  0
  1  2  1  0  0  0  0
  2  3  1  0  0  0  0
  3  4  2  0  0  0  0
  3  5  1  0  0  0  0
  5  9  1  0  0  0  0
  5  6  2  0  0  0  0
  6  7  1  0  0  0  0
  7  8  1  0  0  0  0
  7 10  1  0  0  0  0
  8  9  2  0  0  0  0
 10 11  1  1  0  0  0
 10 20  1  0  0  0  0
 10 12  1  0  0  0  0
 12 13  1  0  0  0  0
 13 14  1  1  0  0  0
 13 15  1  0  0  0  0
 13 17  1  0  0  0  0
 15 16  1  0  0  0  0
 17 18  1  1  0  0  0
 17 19  1  0  0  0  0
 17 20  1  0  0  0  0
 20 21  1  0  0  0  0
M  RAD  2   6   2   9   2
M  END
>  <Supplier>
www.ambinter.com

>  <Ambinter_reference>
Amb35817064

>  <MW>
259.216

$$$$
Amb35818428
 OpenBabel08272102022D

 26 27  0  0  1  0  0  0  0  0999 V2000
   -1.5000   -0.1340    0.0000 Li  0  0  0  0  0  0  0  0  0  0  0  0
   -1.0000   -1.0000    0.0000 O   0  0  0  0  0  0  0  0  0  0  0  0
    0.0000   -1.0000    0.0000 P   0  0  0  0  0  0  0  0  0  0  0  0
    0.0000   -2.0000    0.0000 O   0  0  0  0  0  0  0  0  0  0  0  0
    1.0000   -1.0000    0.0000 O   0  0  0  0  0  0  0  0  0  0  0  0
    1.5000   -0.1340    0.0000 C   0  0  0  0  0  0  0  0  0  0  0  0
    2.5000   -0.1340    0.0000 C   0  0  2  0  0  0  0  0  0  0  0  0
    2.6989   -1.1140    0.0000 H   0  0  0  0  0  0  0  0  0  0  0  0
    3.4877   -0.2904    0.0000 O   0  0  0  0  0  0  0  0  0  0  0  0
    3.9417    0.6006    0.0000 C   0  0  1  0  0  0  0  0  0  0  0  0
    4.7188    1.2299    0.0000 H   0  0  0  0  0  0  0  0  0  0  0  0
    3.2346    1.3077    0.0000 C   0  0  3  0  0  0  0  0  0  0  0  0
    3.3910    2.2954    0.0000 O   0  0  0  0  0  0  0  0  0  0  0  0
    2.3436    0.8537    0.0000 C   0  0  2  0  0  0  0  0  0  0  0  0
    1.3449    0.8014    0.0000 H   0  0  0  0  0  0  0  0  0  0  0  0
    1.7989    1.6924    0.0000 O   0  0  0  0  0  0  0  0  0  0  0  0
    4.8753    0.2422    0.0000 N   0  0  0  0  0  0  0  0  0  0  0  0
    5.1341   -0.7237    0.0000 C   0  0  0  0  0  0  0  0  0  0  0  0
    6.1327   -0.7760    0.0000 N   0  0  0  0  0  0  0  0  0  0  0  0
    6.4911    0.1575    0.0000 C   0  0  0  0  0  0  0  0  0  0  0  0
    5.7139    0.7869    0.0000 N   0  0  0  0  0  0  0  0  0  0  0  0
    7.4570    0.4164    0.0000 C   0  0  0  0  0  0  0  0  0  0  0  0
    7.7158    1.3823    0.0000 N   0  0  0  0  0  0  0  0  0  0  0  0
    8.1641   -0.2907    0.0000 O   0  0  0  0  0  0  0  0  0  0  0  0
    0.0000   -0.0000    0.0000 O   0  0  0  0  0  0  0  0  0  0  0  0
    0.8660    0.5000    0.0000 Li  0  0  0  0  0  0  0  0  0  0  0  0
  1  2  1  0  0  0  0
  2  3  1  0  0  0  0
  3  4  2  0  0  0  0
  3  5  1  0  0  0  0
  3 25  1  0  0  0  0
  5  6  1  0  0  0  0
  6  7  1  0  0  0  0
  7  8  1  6  0  0  0
  7 14  1  0  0  0  0
  7  9  1  0  0  0  0
  9 10  1  0  0  0  0
 10 11  1  6  0  0  0
 10 12  1  0  0  0  0
 10 17  1  0  0  0  0
 12 13  1  0  0  0  0
 12 14  1  0  0  0  0
 14 15  1  6  0  0  0
 14 16  1  0  0  0  0
 17 21  1  0  0  0  0
 17 18  1  0  0  0  0
 18 19  2  0  0  0  0
 19 20  1  0  0  0  0
 20 21  2  0  0  0  0
 20 22  1  0  0  0  0
 22 23  1  0  0  0  0
 22 24  2  0  0  0  0
 25 26  1  0  0  0  0
M  END
>  <Supplier>
www.ambinter.com

>  <Ambinter_reference>
Amb35818428

>  <MW>
336.051

$$$$
Amb35818431
 OpenBabel08272102022D

 32 33  0  0  1  0  0  0  0  0999 V2000
    5.8644   -6.1748    0.0000 N   0  0  0  0  0  0  0  0  0  0  0  0
    6.3183   -5.2838    0.0000 C   0  0  0  0  0  0  0  0  0  0  0  0
    7.3170   -5.2314    0.0000 O   0  0  0  0  0  0  0  0  0  0  0  0
    5.7737   -4.4451    0.0000 C   0  0  0  0  0  0  0  0  0  0  0  0
    4.7751   -4.3928    0.0000 N   0  0  0  0  0  0  0  0  0  0  0  0
    4.5163   -3.4268    0.0000 N   0  0  0  0  0  0  0  0  0  0  0  0
    5.3549   -2.8822    0.0000 C   0  0  0  0  0  0  0  0  0  0  0  0
    6.1321   -3.5115    0.0000 N   0  0  0  0  0  0  0  0  0  0  0  0
    3.5827   -3.0685    0.0000 C   0  0  2  0  0  0  0  0  0  0  0  0
    3.0457   -3.9121    0.0000 H   0  0  0  0  0  0  0  0  0  0  0  0
    2.6045   -2.8605    0.0000 O   0  0  0  0  0  0  0  0  0  0  0  0
    2.5000   -1.8660    0.0000 C   0  0  2  0  0  0  0  0  0  0  0  0
    2.0000   -1.0000    0.0000 H   0  0  0  0  0  0  0  0  0  0  0  0
    1.5000   -1.8660    0.0000 C   0  0  0  0  0  0  0  0  0  0  0  0
    1.0000   -1.0000    0.0000 O   0  0  0  0  0  0  0  0  0  0  0  0
    0.0000   -1.0000    0.0000 P   0  0  3  0  0  0  0  0  0  0  0  0
   -0.0000   -2.0000    0.0000 O   0  0  0  0  0  0  0  0  0  0  0  0
   -1.0000   -1.0000    0.0000 O   0  0  0  0  0  0  0  0  0  0  0  0
    0.0000    0.0000    0.0000 O   0  0  0  0  0  0  0  0  0  0  0  0
    0.0000    1.0000    0.0000 P   0  0  3  0  0  0  0  0  0  0  0  0
   -1.0000    1.0000    0.0000 O   0  0  0  0  0  0  0  0  0  0  0  0
    0.0000    2.0000    0.0000 O   0  0  0  0  0  0  0  0  0  0  0  0
    1.0000    1.0000    0.0000 O   0  0  0  0  0  0  0  0  0  0  0  0
    2.0000    1.0000    0.0000 P   0  0  0  0  0  0  0  0  0  0  0  0
    2.0000    2.0000    0.0000 O   0  0  0  0  0  0  0  0  0  0  0  0
    3.0000    1.0000    0.0000 O   0  0  0  0  0  0  0  0  0  0  0  0
    2.0000   -0.0000    0.0000 O   0  0  0  0  0  0  0  0  0  0  0  0
    3.4135   -1.4593    0.0000 C   0  0  2  0  0  0  0  0  0  0  0  0
    4.0827   -0.7161    0.0000 H   0  0  0  0  0  0  0  0  0  0  0  0
    3.1045   -0.5082    0.0000 O   0  0  0  0  0  0  0  0  0  0  0  0
    4.0827   -2.2024    0.0000 C   0  0  3  0  0  0  0  0  0  0  0  0
    5.0772   -2.0979    0.0000 O   0  0  0  0  0  0  0  0  0  0  0  0
  1  2  1  0  0  0  0
  2  3  2  0  0  0  0
  2  4  1  0  0  0  0
  4  8  1  0  0  0  0
  4  5  2  0  0  0  0
  5  6  1  0  0  0  0
  6  7  1  0  0  0  0
  6  9  1  0  0  0  0
  7  8  2  0  0  0  0
  9 10  1  1  0  0  0
  9 31  1  0  0  0  0
  9 11  1  0  0  0  0
 11 12  1  0  0  0  0
 12 13  1  1  0  0  0
 12 14  1  0  0  0  0
 12 28  1  0  0  0  0
 14 15  1  0  0  0  0
 15 16  1  0  0  0  0
 16 17  1  0  0  0  0
 16 18  2  0  0  0  0
 16 19  1  0  0  0  0
 19 20  1  0  0  0  0
 20 21  1  0  0  0  0
 20 22  2  0  0  0  0
 20 23  1  0  0  0  0
 23 24  1  0  0  0  0
 24 25  1  0  0  0  0
 24 26  1  0  0  0  0
 24 27  2  0  0  0  0
 28 29  1  1  0  0  0
 28 30  1  0  0  0  0
 28 31  1  0  0  0  0
 31 32  1  0  0  0  0
M  END
>  <Supplier>
www.ambinter.com

>  <Ambinter_reference>
Amb35818431

>  <MW>
484.144

$$$$
Amb36281808
 OpenBabel08272102022D

 18 18  0  0  1  0  0  0  0  0999 V2000
   -1.4309    2.2716    0.0000 Cl  0  0  0  0  0  0  0  0  0  0  0  0
    1.7872   -0.5000    0.0000 N   0  0  0  0  0  0  0  0  0  0  0  0
    1.4781   -1.4511    0.0000 C   0  0  0  0  0  0  0  0  0  0  0  0
    0.5000   -1.6590    0.0000 N   0  0  0  0  0  0  0  0  0  0  0  0
    2.1473   -2.1942    0.0000 C   0  0  0  0  0  0  0  0  0  0  0  0
    3.1418   -2.0897    0.0000 N   0  0  0  0  0  0  0  0  0  0  0  0
    3.5485   -3.0032    0.0000 N   0  0  0  0  0  0  0  0  0  0  0  0
    2.8054   -3.6723    0.0000 C   0  0  0  0  0  0  0  0  0  0  0  0
    1.9394   -3.1723    0.0000 N   0  0  0  0  0  0  0  0  0  0  0  0
    4.5267   -3.2111    0.0000 C   0  0  3  0  0  0  0  0  0  0  0  0
    5.2698   -2.5420    0.0000 O   0  0  0  0  0  0  0  0  0  0  0  0
    6.1359   -3.0420    0.0000 C   0  0  3  0  0  0  0  0  0  0  0  0
    7.0494   -2.6353    0.0000 C   0  0  0  0  0  0  0  0  0  0  0  0
    7.8584   -3.2230    0.0000 O   0  0  0  0  0  0  0  0  0  0  0  0
    5.9279   -4.0201    0.0000 C   0  0  3  0  0  0  0  0  0  0  0  0
    6.5971   -4.7633    0.0000 O   0  0  0  0  0  0  0  0  0  0  0  0
    4.9334   -4.1247    0.0000 C   0  0  3  0  0  0  0  0  0  0  0  0
    4.4334   -4.9907    0.0000 O   0  0  0  0  0  0  0  0  0  0  0  0
  2  3  1  0  0  0  0
  3  4  2  0  0  0  0
  3  5  1  0  0  0  0
  5  9  1  0  0  0  0
  5  6  2  0  0  0  0
  6  7  1  0  0  0  0
  7  8  1  0  0  0  0
  7 10  1  0  0  0  0
  8  9  2  0  0  0  0
 10 17  1  0  0  0  0
 10 11  1  0  0  0  0
 11 12  1  0  0  0  0
 12 13  1  0  0  0  0
 12 15  1  0  0  0  0
 13 14  1  0  0  0  0
 15 16  1  0  0  0  0
 15 17  1  0  0  0  0
 17 18  1  0  0  0  0
M  RAD  2   6   2   9   2
M  END
>  <Supplier>
www.ambinter.com

>  <Ambinter_reference>
Amb36281808

>  <MW>
279.681

$$$$
Amb36282046
 OpenBabel08272102022D

 17 18  0  0  1  0  0  0  0  0999 V2000
    4.7166   -1.1334    0.0000 O   0  0  0  0  0  0  0  0  0  0  0  0
    3.9076   -0.5456    0.0000 C   0  0  0  0  0  0  0  0  0  0  0  0
    4.0121    0.4489    0.0000 O   0  0  0  0  0  0  0  0  0  0  0  0
    2.9941   -0.9523    0.0000 C   0  0  0  0  0  0  0  0  0  0  0  0
    2.7861   -1.9305    0.0000 N   0  0  0  0  0  0  0  0  0  0  0  0
    1.7916   -2.0350    0.0000 C   0  0  0  0  0  0  0  0  0  0  0  0
    1.3849   -1.1215    0.0000 N   0  0  0  0  0  0  0  0  0  0  0  0
    2.1280   -0.4523    0.0000 N   0  0  0  0  0  0  0  0  0  0  0  0
    0.4067   -0.9135    0.0000 C   0  0  3  0  0  0  0  0  0  0  0  0
   -0.3364   -1.5827    0.0000 O   0  0  0  0  0  0  0  0  0  0  0  0
   -1.2024   -1.0827    0.0000 C   0  0  3  0  0  0  0  0  0  0  0  0
   -2.1160   -1.4894    0.0000 C   0  0  0  0  0  0  0  0  0  0  0  0
   -2.2205   -2.4839    0.0000 O   0  0  0  0  0  0  0  0  0  0  0  0
   -0.9945   -0.1045    0.0000 C   0  0  3  0  0  0  0  0  0  0  0  0
   -1.6637    0.6386    0.0000 O   0  0  0  0  0  0  0  0  0  0  0  0
   -0.0000   -0.0000    0.0000 C   0  0  3  0  0  0  0  0  0  0  0  0
    0.5000    0.8660    0.0000 O   0  0  0  0  0  0  0  0  0  0  0  0
  1  2  1  0  0  0  0
  2  3  2  0  0  0  0
  2  4  1  0  0  0  0
  4  8  2  0  0  0  0
  4  5  1  0  0  0  0
  5  6  2  0  0  0  0
  6  7  1  0  0  0  0
  7  8  1  0  0  0  0
  7  9  1  0  0  0  0
  9 16  1  0  0  0  0
  9 10  1  0  0  0  0
 10 11  1  0  0  0  0
 11 12  1  0  0  0  0
 11 14  1  0  0  0  0
 12 13  1  0  0  0  0
 14 15  1  0  0  0  0
 14 16  1  0  0  0  0
 16 17  1  0  0  0  0
M  RAD  2   5   2   8   2
M  END
>  <Supplier>
www.ambinter.com

>  <Ambinter_reference>
Amb36282046

>  <MW>
245.189

$$$$
Amb36282640
 OpenBabel08272102022D

 17 18  0  0  1  0  0  0  0  0999 V2000
   -2.8325   -1.1300    0.0000 N   0  0  0  0  0  0  0  0  0  0  0  0
   -2.0235   -0.5422    0.0000 C   0  0  0  0  0  0  0  0  0  0  0  0
   -1.1100   -0.9489    0.0000 O   0  0  0  0  0  0  0  0  0  0  0  0
   -2.1280    0.4523    0.0000 C   0  0  0  0  0  0  0  0  0  0  0  0
   -2.9941    0.9523    0.0000 N   0  0  0  0  0  0  0  0  0  0  0  0
   -2.7861    1.9305    0.0000 C   0  0  0  0  0  0  0  0  0  0  0  0
   -1.7916    2.0350    0.0000 N   0  0  0  0  0  0  0  0  0  0  0  0
   -1.3849    1.1215    0.0000 N   0  0  0  0  0  0  0  0  0  0  0  0
   -0.4067    0.9135    0.0000 C   0  0  3  0  0  0  0  0  0  0  0  0
    0.3364    1.5827    0.0000 O   0  0  0  0  0  0  0  0  0  0  0  0
    1.2024    1.0827    0.0000 C   0  0  3  0  0  0  0  0  0  0  0  0
    2.1160    1.4894    0.0000 C   0  0  0  0  0  0  0  0  0  0  0  0
    2.9250    0.9016    0.0000 O   0  0  0  0  0  0  0  0  0  0  0  0
    0.9945    0.1045    0.0000 C   0  0  3  0  0  0  0  0  0  0  0  0
    1.6637   -0.6386    0.0000 O   0  0  0  0  0  0  0  0  0  0  0  0
    0.0000    0.0000    0.0000 C   0  0  3  0  0  0  0  0  0  0  0  0
   -0.5000   -0.8660    0.0000 O   0  0  0  0  0  0  0  0  0  0  0  0
  1  2  1  0  0  0  0
  2  3  2  0  0  0  0
  2  4  1  0  0  0  0
  4  8  1  0  0  0  0
  4  5  2  0  0  0  0
  5  6  1  0  0  0  0
  6  7  2  0  0  0  0
  7  8  1  0  0  0  0
  8  9  1  0  0  0  0
  9 16  1  0  0  0  0
  9 10  1  0  0  0  0
 10 11  1  0  0  0  0
 11 12  1  0  0  0  0
 11 14  1  0  0  0  0
 12 13  1  0  0  0  0
 14 15  1  0  0  0  0
 14 16  1  0  0  0  0
 16 17  1  0  0  0  0
M  RAD  2   5   2   7   2
M  END
>  <Supplier>
www.ambinter.com

>  <Ambinter_reference>
Amb36282640

>  <MW>
244.205

$$$$
Amb36286055
 OpenBabel08272102022D

 25 27  0  0  1  0  0  0  0  0999 V2000
    1.4000   -4.5910    0.0000 N   0  0  0  0  0  0  0  0  0  0  0  0
    2.0691   -3.8479    0.0000 C   0  0  0  0  0  0  0  0  0  0  0  0
    3.0472   -4.0558    0.0000 O   0  0  0  0  0  0  0  0  0  0  0  0
    1.7601   -2.8968    0.0000 C   0  0  0  0  0  0  0  0  0  0  0  0
    0.8090   -2.5878    0.0000 N   0  0  0  0  0  0  0  0  0  0  0  0
    0.8090   -1.5878    0.0000 N   0  0  0  0  0  0  0  0  0  0  0  0
    1.7601   -1.2788    0.0000 C   0  0  0  0  0  0  0  0  0  0  0  0
    2.3479   -2.0878    0.0000 N   0  0  0  0  0  0  0  0  0  0  0  0
    0.0000   -1.0000    0.0000 C   0  0  3  0  0  0  0  0  0  0  0  0
   -0.9511   -1.3090    0.0000 O   0  0  0  0  0  0  0  0  0  0  0  0
   -1.5388   -0.5000    0.0000 C   0  0  3  0  0  0  0  0  0  0  0  0
   -2.5388   -0.5000    0.0000 C   0  0  0  0  0  0  0  0  0  0  0  0
   -3.0388    0.3660    0.0000 O   0  0  0  0  0  0  0  0  0  0  0  0
   -4.0388    0.3660    0.0000 C   0  0  0  0  0  0  0  0  0  0  0  0
   -4.5388    1.2321    0.0000 O   0  0  0  0  0  0  0  0  0  0  0  0
   -4.5388   -0.5000    0.0000 C   0  0  0  0  0  0  0  0  0  0  0  0
   -4.0388   -1.3660    0.0000 C   0  0  0  0  0  0  0  0  0  0  0  0
   -4.5388   -2.2321    0.0000 C   0  0  0  0  0  0  0  0  0  0  0  0
   -5.5388   -2.2321    0.0000 C   0  0  0  0  0  0  0  0  0  0  0  0
   -6.0388   -1.3660    0.0000 C   0  0  0  0  0  0  0  0  0  0  0  0
   -5.5388   -0.5000    0.0000 C   0  0  0  0  0  0  0  0  0  0  0  0
   -0.9511    0.3090    0.0000 C   0  0  3  0  0  0  0  0  0  0  0  0
   -1.2601    1.2601    0.0000 O   0  0  0  0  0  0  0  0  0  0  0  0
    0.0000    0.0000    0.0000 C   0  0  3  0  0  0  0  0  0  0  0  0
    0.8090    0.5878    0.0000 O   0  0  0  0  0  0  0  0  0  0  0  0
  1  2  1  0  0  0  0
  2  3  2  0  0  0  0
  2  4  1  0  0  0  0
  4  8  1  0  0  0  0
  4  5  2  0  0  0  0
  5  6  1  0  0  0  0
  6  7  1  0  0  0  0
  6  9  1  0  0  0  0
  7  8  2  0  0  0  0
  9 24  1  0  0  0  0
  9 10  1  0  0  0  0
 10 11  1  0  0  0  0
 11 12  1  0  0  0  0
 11 22  1  0  0  0  0
 12 13  1  0  0  0  0
 13 14  1  0  0  0  0
 14 15  2  0  0  0  0
 14 16  1  0  0  0  0
 16 21  1  0  0  0  0
 16 17  2  0  0  0  0
 17 18  1  0  0  0  0
 18 19  2  0  0  0  0
 19 20  1  0  0  0  0
 20 21  2  0  0  0  0
 22 23  1  0  0  0  0
 22 24  1  0  0  0  0
 24 25  1  0  0  0  0
M  RAD  2   5   2   8   2
M  END
>  <Supplier>
www.ambinter.com

>  <Ambinter_reference>
Amb36286055

>  <MW>
348.311

$$$$
Amb36287909
 OpenBabel08272102022D

 25 26  0  0  1  0  0  0  0  0999 V2000
   -3.7461   -0.7232    0.0000 C   0  0  0  0  0  0  0  0  0  0  0  0
   -2.8325   -1.1300    0.0000 C   0  0  0  0  0  0  0  0  0  0  0  0
   -2.7280   -2.1245    0.0000 O   0  0  0  0  0  0  0  0  0  0  0  0
   -2.0235   -0.5422    0.0000 O   0  0  0  0  0  0  0  0  0  0  0  0
   -2.1280    0.4523    0.0000 C   0  0  3  0  0  0  0  0  0  0  0  0
   -2.9941    0.9523    0.0000 C   0  0  3  0  0  0  0  0  0  0  0  0
   -3.9076    0.5456    0.0000 O   0  0  0  0  0  0  0  0  0  0  0  0
   -4.7166    1.1334    0.0000 C   0  0  0  0  0  0  0  0  0  0  0  0
   -4.6121    2.1279    0.0000 C   0  0  0  0  0  0  0  0  0  0  0  0
   -5.6302    0.7266    0.0000 O   0  0  0  0  0  0  0  0  0  0  0  0
   -2.7861    1.9305    0.0000 C   0  0  3  0  0  0  0  0  0  0  0  0
   -3.4553    2.6736    0.0000 C   0  0  0  0  0  0  0  0  0  0  0  0
   -3.1463    3.6247    0.0000 O   0  0  0  0  0  0  0  0  0  0  0  0
   -2.1681    3.8326    0.0000 C   0  0  0  0  0  0  0  0  0  0  0  0
   -1.4990    3.0894    0.0000 C   0  0  0  0  0  0  0  0  0  0  0  0
   -1.8591    4.7836    0.0000 O   0  0  0  0  0  0  0  0  0  0  0  0
   -1.7916    2.0350    0.0000 O   0  0  0  0  0  0  0  0  0  0  0  0
   -1.3849    1.1215    0.0000 C   0  0  3  0  0  0  0  0  0  0  0  0
   -0.4067    0.9135    0.0000 N   0  0  0  0  0  0  0  0  0  0  0  0
    0.3364    1.5827    0.0000 C   0  0  0  0  0  0  0  0  0  0  0  0
    1.2024    1.0827    0.0000 N   0  0  0  0  0  0  0  0  0  0  0  0
    0.9945    0.1045    0.0000 C   0  0  0  0  0  0  0  0  0  0  0  0
    1.6637   -0.6386    0.0000 C   0  0  0  0  0  0  0  0  0  0  0  0
    2.3328   -1.3818    0.0000 N   0  0  0  0  0  0  0  0  0  0  0  0
    0.0000   -0.0000    0.0000 N   0  0  0  0  0  0  0  0  0  0  0  0
  1  2  1  0  0  0  0
  2  3  2  0  0  0  0
  2  4  1  0  0  0  0
  4  5  1  0  0  0  0
  5 18  1  0  0  0  0
  5  6  1  0  0  0  0
  6  7  1  0  0  0  0
  6 11  1  0  0  0  0
  7  8  1  0  0  0  0
  8  9  1  0  0  0  0
  8 10  2  0  0  0  0
 11 12  1  0  0  0  0
 11 17  1  0  0  0  0
 12 13  1  0  0  0  0
 13 14  1  0  0  0  0
 14 15  1  0  0  0  0
 14 16  2  0  0  0  0
 17 18  1  0  0  0  0
 18 19  1  0  0  0  0
 19 25  1  0  0  0  0
 19 20  1  0  0  0  0
 20 21  2  0  0  0  0
 21 22  1  0  0  0  0
 22 23  1  0  0  0  0
 22 25  2  0  0  0  0
 23 24  3  0  0  0  0
M  RAD  2  21   2  25   2
M  END
>  <Supplier>
www.ambinter.com

>  <Ambinter_reference>
Amb36287909

>  <MW>
352.299

$$$$
Amb36292078
 OpenBabel08272102022D

 24 24  0  0  1  0  0  0  0  0999 V2000
   -1.9210    2.6959    0.0000 Cl  0  0  0  0  0  0  0  0  0  0  0  0
    1.0138   -1.1150    0.0000 N   0  0  0  0  0  0  0  0  0  0  0  0
    1.2134   -2.0540    0.0000 C   0  0  0  0  0  0  0  0  0  0  0  0
    0.5000   -2.6964    0.0000 N   0  0  0  0  0  0  0  0  0  0  0  0
    2.1264   -2.3507    0.0000 C   0  0  0  0  0  0  0  0  0  0  0  0
    2.9031   -1.7864    0.0000 N   0  0  0  0  0  0  0  0  0  0  0  0
    3.6797   -2.3507    0.0000 N   0  0  0  0  0  0  0  0  0  0  0  0
    3.3831   -3.2637    0.0000 C   0  0  0  0  0  0  0  0  0  0  0  0
    2.4231   -3.2637    0.0000 N   0  0  0  0  0  0  0  0  0  0  0  0
    5.5058   -1.7574    0.0000 C   0  0  2  0  0  0  0  0  0  0  0  0
    5.3967   -0.8036    0.0000 H   0  0  0  0  0  0  0  0  0  0  0  0
    6.3611   -1.3216    0.0000 O   0  0  0  0  0  0  0  0  0  0  0  0
    7.0400   -2.0004    0.0000 C   0  0  2  0  0  0  0  0  0  0  0  0
    7.9362   -2.3444    0.0000 H   0  0  0  0  0  0  0  0  0  0  0  0
    7.7860   -1.3962    0.0000 C   0  0  0  0  0  0  0  0  0  0  0  0
    8.1301   -0.5000    0.0000 H   0  0  0  0  0  0  0  0  0  0  0  0
    7.1819   -0.6502    0.0000 H   0  0  0  0  0  0  0  0  0  0  0  0
    8.6823   -1.7403    0.0000 O   0  0  0  0  0  0  0  0  0  0  0  0
    6.6041   -2.8558    0.0000 C   0  0  1  0  0  0  0  0  0  0  0  0
    6.5539   -3.8144    0.0000 H   0  0  0  0  0  0  0  0  0  0  0  0
    7.4093   -3.3786    0.0000 O   0  0  0  0  0  0  0  0  0  0  0  0
    5.6560   -2.7056    0.0000 C   0  0  1  0  0  0  0  0  0  0  0  0
    4.7287   -2.9540    0.0000 H   0  0  0  0  0  0  0  0  0  0  0  0
    5.4075   -3.6329    0.0000 O   0  0  0  0  0  0  0  0  0  0  0  0
  2  3  1  0  0  0  0
  3  4  2  0  0  0  0
  3  5  1  0  0  0  0
  5  9  1  0  0  0  0
  5  6  2  0  0  0  0
  6  7  1  0  0  0  0
  7  8  1  0  0  0  0
  7 10  1  0  0  0  0
  8  9  2  0  0  0  0
 10 11  1  1  0  0  0
 10 22  1  0  0  0  0
 10 12  1  0  0  0  0
 12 13  1  0  0  0  0
 13 14  1  1  0  0  0
 13 15  1  0  0  0  0
 13 19  1  0  0  0  0
 15 16  1  0  0  0  0
 15 17  1  0  0  0  0
 15 18  1  0  0  0  0
 19 20  1  6  0  0  0
 19 21  1  0  0  0  0
 19 22  1  0  0  0  0
 22 23  1  6  0  0  0
 22 24  1  0  0  0  0
M  RAD  2   6   2   9   2
M  ISO  5  10  13  13  13  15  13  19  13  22  13
M  END
>  <Supplier>
www.ambinter.com

>  <Ambinter_reference>
Amb36292078

>  <MW>
284.644

$$$$
Amb36292190
 OpenBabel08272102022D

 21 22  0  0  1  0  0  0  0  0999 V2000
    1.9145   -2.3506    0.0000 N   0  0  0  0  0  0  0  0  0  0  0  0
    2.7429   -1.8723    0.0000 C   0  0  0  0  0  0  0  0  0  0  0  0
    3.5713   -2.3506    0.0000 O   0  0  0  0  0  0  0  0  0  0  0  0
    2.7429   -0.9158    0.0000 C   0  0  0  0  0  0  0  0  0  0  0  0
    3.5167   -0.3536    0.0000 N   0  0  0  0  0  0  0  0  0  0  0  0
    3.2211    0.5561    0.0000 C   0  0  0  0  0  0  0  0  0  0  0  0
    2.2646    0.5561    0.0000 N   0  0  0  0  0  0  0  0  0  0  0  0
    1.9690   -0.3536    0.0000 N   0  0  0  0  0  0  0  0  0  0  0  0
    0.1496   -0.9447    0.0000 C   0  0  2  0  0  0  0  0  0  0  0  0
    0.2583   -1.8951    0.0000 H   0  0  0  0  0  0  0  0  0  0  0  0
   -0.7026   -1.3790    0.0000 O   0  0  0  0  0  0  0  0  0  0  0  0
   -1.3790   -0.7026    0.0000 C   0  0  2  0  0  0  0  0  0  0  0  0
   -2.2720   -0.3598    0.0000 H   0  0  0  0  0  0  0  0  0  0  0  0
   -2.1224   -1.3046    0.0000 C   0  0  0  0  0  0  0  0  0  0  0  0
   -3.0153   -0.9618    0.0000 O   0  0  0  0  0  0  0  0  0  0  0  0
   -0.9447    0.1496    0.0000 C   0  0  1  0  0  0  0  0  0  0  0  0
   -0.8947    1.1048    0.0000 H   0  0  0  0  0  0  0  0  0  0  0  0
   -1.7470    0.6706    0.0000 O   0  0  0  0  0  0  0  0  0  0  0  0
    0.0000    0.0000    0.0000 C   0  0  1  0  0  0  0  0  0  0  0  0
    0.9239    0.2476    0.0000 H   0  0  0  0  0  0  0  0  0  0  0  0
    0.2476    0.9239    0.0000 O   0  0  0  0  0  0  0  0  0  0  0  0
  1  2  1  0  0  0  0
  2  3  2  0  0  0  0
  2  4  1  0  0  0  0
  4  8  1  0  0  0  0
  4  5  2  0  0  0  0
  5  6  1  0  0  0  0
  6  7  2  0  0  0  0
  7  8  1  0  0  0  0
  8  9  1  0  0  0  0
  9 10  1  1  0  0  0
  9 19  1  0  0  0  0
  9 11  1  0  0  0  0
 11 12  1  0  0  0  0
 12 13  1  1  0  0  0
 12 14  1  0  0  0  0
 12 16  1  0  0  0  0
 14 15  1  0  0  0  0
 16 17  1  6  0  0  0
 16 18  1  0  0  0  0
 16 19  1  0  0  0  0
 19 20  1  6  0  0  0
 19 21  1  0  0  0  0
M  RAD  2   5   2   7   2
M  END
>  <Supplier>
www.ambinter.com

>  <Ambinter_reference>
Amb36292190

>  <MW>
244.205

$$$$
Amb36293931
 OpenBabel08272102022D

 23 24  0  0  1  0  0  0  0  0999 V2000
   -4.6421    1.5905    0.0000 N   0  0  0  0  0  0  0  0  0  0  0  0
   -4.4425    0.6515    0.0000 C   0  0  0  0  0  0  0  0  0  0  0  0
   -5.1560    0.0092    0.0000 O   0  0  0  0  0  0  0  0  0  0  0  0
   -3.5295    0.3549    0.0000 C   0  0  0  0  0  0  0  0  0  0  0  0
   -2.7529    0.9191    0.0000 N   0  0  0  0  0  0  0  0  0  0  0  0
   -1.9762    0.3549    0.0000 N   0  0  0  0  0  0  0  0  0  0  0  0
   -2.2729   -0.5581    0.0000 C   0  0  0  0  0  0  0  0  0  0  0  0
   -3.2329   -0.5581    0.0000 N   0  0  0  0  0  0  0  0  0  0  0  0
   -0.1502    0.9482    0.0000 C   0  0  1  0  0  0  0  0  0  0  0  0
   -0.2593    1.9020    0.0000 H   0  0  0  0  0  0  0  0  0  0  0  0
    0.7052    1.3840    0.0000 O   0  0  0  0  0  0  0  0  0  0  0  0
    1.3840    0.7052    0.0000 C   0  0  1  0  0  0  0  0  0  0  0  0
    2.2802    0.3612    0.0000 H   0  0  0  0  0  0  0  0  0  0  0  0
    2.1301    1.3093    0.0000 C   0  0  0  0  0  0  0  0  0  0  0  0
    2.4741    2.2056    0.0000 H   0  0  0  0  0  0  0  0  0  0  0  0
    1.5259    2.0554    0.0000 H   0  0  0  0  0  0  0  0  0  0  0  0
    3.0263    0.9653    0.0000 O   0  0  0  0  0  0  0  0  0  0  0  0
    0.9482   -0.1502    0.0000 C   0  0  2  0  0  0  0  0  0  0  0  0
    0.8979   -1.1089    0.0000 H   0  0  0  0  0  0  0  0  0  0  0  0
    1.7533   -0.6730    0.0000 O   0  0  0  0  0  0  0  0  0  0  0  0
    0.0000   -0.0000    0.0000 C   0  0  2  0  0  0  0  0  0  0  0  0
   -0.9273   -0.2485    0.0000 H   0  0  0  0  0  0  0  0  0  0  0  0
   -0.2485   -0.9273    0.0000 O   0  0  0  0  0  0  0  0  0  0  0  0
  1  2  1  0  0  0  0
  2  3  2  0  0  0  0
  2  4  1  0  0  0  0
  4  8  1  0  0  0  0
  4  5  2  0  0  0  0
  5  6  1  0  0  0  0
  6  7  1  0  0  0  0
  6  9  1  0  0  0  0
  7  8  2  0  0  0  0
  9 10  1  6  0  0  0
  9 21  1  0  0  0  0
  9 11  1  0  0  0  0
 11 12  1  0  0  0  0
 12 13  1  6  0  0  0
 12 14  1  0  0  0  0
 12 18  1  0  0  0  0
 14 15  1  0  0  0  0
 14 16  1  0  0  0  0
 14 17  1  0  0  0  0
 18 19  1  1  0  0  0
 18 20  1  0  0  0  0
 18 21  1  0  0  0  0
 21 22  1  1  0  0  0
 21 23  1  0  0  0  0
M  RAD  2   5   2   8   2
M  ISO  5   9  13  12  13  14  13  18  13  21  13
M  END
>  <Supplier>
www.ambinter.com

>  <Ambinter_reference>
Amb36293931

>  <MW>
249.168

$$$$
Amb37787142
 OpenBabel08272102022D

 27 26  0  0  1  0  0  0  0  0999 V2000
   10.4079   -0.5000    0.0000 Li  0  3  0  0  0 15  0  0  0  0  0  0
   -1.5238    2.9780    0.0000 Li  0  3  0  0  0 15  0  0  0  0  0  0
    1.8988   -0.5000    0.0000 N   0  0  0  0  0  0  0  0  0  0  0  0
    1.4616   -1.3580    0.0000 C   0  0  0  0  0  0  0  0  0  0  0  0
    0.5000   -1.4084    0.0000 O   0  0  0  0  0  0  0  0  0  0  0  0
    1.9861   -2.1656    0.0000 C   0  0  0  0  0  0  0  0  0  0  0  0
    2.9478   -2.2160    0.0000 N   0  0  0  0  0  0  0  0  0  0  0  0
    3.1970   -3.1462    0.0000 N   0  0  0  0  0  0  0  0  0  0  0  0
    2.3894   -3.6706    0.0000 C   0  0  0  0  0  0  0  0  0  0  0  0
    1.6410   -3.0646    0.0000 N   0  0  0  0  0  0  0  0  0  0  0  0
    4.9950   -3.8364    0.0000 C   0  0  2  0  0  0  0  0  0  0  0  0
    5.5120   -3.0240    0.0000 H   0  0  0  0  0  0  0  0  0  0  0  0
    5.9369   -4.0366    0.0000 O   0  0  0  0  0  0  0  0  0  0  0  0
    6.0376   -4.9943    0.0000 C   0  0  2  0  0  0  0  0  0  0  0  0
    6.5191   -5.8282    0.0000 H   0  0  0  0  0  0  0  0  0  0  0  0
    7.0005   -4.9943    0.0000 C   0  0  0  0  0  0  0  0  0  0  0  0
    7.4820   -5.8282    0.0000 O   0  0  0  0  0  0  0  0  0  0  0  0
    8.4450   -5.8282    0.0000 P   0  0  0  0  0  0  0  0  0  0  0  0
    8.4450   -6.7912    0.0000 O   0  5  0  0  0  0  0  0  0  0  0  0
    9.4079   -5.8282    0.0000 O   0  5  0  0  0  0  0  0  0  0  0  0
    8.4450   -4.8652    0.0000 O   0  0  0  0  0  0  0  0  0  0  0  0
    5.1579   -5.3859    0.0000 C   0  0  1  0  0  0  0  0  0  0  0  0
    4.5135   -6.1015    0.0000 H   0  0  0  0  0  0  0  0  0  0  0  0
    5.4554   -6.3018    0.0000 O   0  0  0  0  0  0  0  0  0  0  0  0
    4.5135   -4.6703    0.0000 C   0  0  1  0  0  0  0  0  0  0  0  0
    3.6338   -4.2786    0.0000 H   0  0  0  0  0  0  0  0  0  0  0  0
    3.7345   -5.2363    0.0000 O   0  0  0  0  0  0  0  0  0  0  0  0
  3  4  1  0  0  0  0
  4  5  2  0  0  0  0
  4  6  1  0  0  0  0
  6 10  1  0  0  0  0
  6  7  2  0  0  0  0
  7  8  1  0  0  0  0
  8  9  1  0  0  0  0
  8 11  1  0  0  0  0
  9 10  2  0  0  0  0
 11 12  1  1  0  0  0
 11 25  1  0  0  0  0
 11 13  1  0  0  0  0
 13 14  1  0  0  0  0
 14 15  1  1  0  0  0
 14 16  1  0  0  0  0
 14 22  1  0  0  0  0
 16 17  1  0  0  0  0
 17 18  1  0  0  0  0
 18 19  1  0  0  0  0
 18 20  1  0  0  0  0
 18 21  2  0  0  0  0
 22 23  1  6  0  0  0
 22 24  1  0  0  0  0
 22 25  1  0  0  0  0
 25 26  1  6  0  0  0
 25 27  1  0  0  0  0
M  CHG  4   1   1   2   1  19  -1  20  -1
M  END
>  <Supplier>
www.ambinter.com

>  <Ambinter_reference>
Amb37787142

>  <MW>
336.051

$$$$
Amb37856126
 OpenBabel08272102022D

 29 30  0  0  1  0  0  0  0  0999 V2000
   -6.5786    4.3869    0.0000 N   0  0  0  0  0  0  0  0  0  0  0  0
   -7.0180    3.5246    0.0000 C   0  0  0  0  0  0  0  0  0  0  0  0
   -7.9844    3.4740    0.0000 O   0  0  0  0  0  0  0  0  0  0  0  0
   -6.4909    2.7130    0.0000 C   0  0  0  0  0  0  0  0  0  0  0  0
   -5.5245    2.6624    0.0000 N   0  0  0  0  0  0  0  0  0  0  0  0
   -5.2740    1.7276    0.0000 N   0  0  0  0  0  0  0  0  0  0  0  0
   -6.0857    1.2005    0.0000 C   0  0  0  0  0  0  0  0  0  0  0  0
   -6.8377    1.8096    0.0000 N   0  0  0  0  0  0  0  0  0  0  0  0
   -3.4671    1.0340    0.0000 C   0  0  2  0  0  0  0  0  0  0  0  0
   -2.9475    1.8504    0.0000 H   0  0  0  0  0  0  0  0  0  0  0  0
   -2.5205    0.8328    0.0000 O   0  0  0  0  0  0  0  0  0  0  0  0
   -2.4194   -0.1297    0.0000 C   0  0  2  0  0  0  0  0  0  0  0  0
   -1.9355   -0.9677    0.0000 H   0  0  0  0  0  0  0  0  0  0  0  0
   -1.4516   -0.1297    0.0000 C   0  0  0  0  0  0  0  0  0  0  0  0
   -0.9677   -0.9677    0.0000 O   0  0  0  0  0  0  0  0  0  0  0  0
    0.0000   -0.9677    0.0000 P   0  0  3  0  0  0  0  0  0  0  0  0
    0.0000   -1.9355    0.0000 O   0  0  0  0  0  0  0  0  0  0  0  0
    0.9677   -0.9677    0.0000 O   0  0  0  0  0  0  0  0  0  0  0  0
    0.0000   -0.0000    0.0000 O   0  0  0  0  0  0  0  0  0  0  0  0
   -0.0000    0.9677    0.0000 P   0  0  0  0  0  0  0  0  0  0  0  0
    0.9677    0.9677    0.0000 O   0  0  0  0  0  0  0  0  0  0  0  0
   -0.0000    1.9355    0.0000 O   0  0  0  0  0  0  0  0  0  0  0  0
   -0.9677    0.9677    0.0000 O   0  0  0  0  0  0  0  0  0  0  0  0
   -3.3034   -0.5233    0.0000 C   0  0  1  0  0  0  0  0  0  0  0  0
   -3.9510   -1.2424    0.0000 H   0  0  0  0  0  0  0  0  0  0  0  0
   -3.0044   -1.4436    0.0000 O   0  0  0  0  0  0  0  0  0  0  0  0
   -3.9510    0.1959    0.0000 C   0  0  1  0  0  0  0  0  0  0  0  0
   -4.8351    0.5895    0.0000 H   0  0  0  0  0  0  0  0  0  0  0  0
   -4.7339   -0.3729    0.0000 O   0  0  0  0  0  0  0  0  0  0  0  0
  1  2  1  0  0  0  0
  2  3  2  0  0  0  0
  2  4  1  0  0  0  0
  4  8  1  0  0  0  0
  4  5  2  0  0  0  0
  5  6  1  0  0  0  0
  6  7  1  0  0  0  0
  6  9  1  0  0  0  0
  7  8  2  0  0  0  0
  9 10  1  1  0  0  0
  9 27  1  0  0  0  0
  9 11  1  0  0  0  0
 11 12  1  0  0  0  0
 12 13  1  1  0  0  0
 12 14  1  0  0  0  0
 12 24  1  0  0  0  0
 14 15  1  0  0  0  0
 15 16  1  0  0  0  0
 16 17  1  0  0  0  0
 16 18  2  0  0  0  0
 16 19  1  0  0  0  0
 19 20  1  0  0  0  0
 20 21  1  0  0  0  0
 20 22  1  0  0  0  0
 20 23  2  0  0  0  0
 24 25  1  6  0  0  0
 24 26  1  0  0  0  0
 24 27  1  0  0  0  0
 27 28  1  6  0  0  0
 27 29  1  0  0  0  0
M  END
>  <Supplier>
www.ambinter.com

>  <Ambinter_reference>
Amb37856126

>  <MW>
404.164

$$$$
Amb37859122
 OpenBabel08272102022D

 17 18  0  0  1  0  0  0  0  0999 V2000
   -3.1463    3.6247    0.0000 N   0  0  0  0  0  0  0  0  0  0  0  0
   -3.4553    2.6736    0.0000 C   0  0  0  0  0  0  0  0  0  0  0  0
   -4.4334    2.4657    0.0000 N   0  0  0  0  0  0  0  0  0  0  0  0
   -2.7861    1.9305    0.0000 C   0  0  0  0  0  0  0  0  0  0  0  0
   -1.7916    2.0350    0.0000 N   0  0  0  0  0  0  0  0  0  0  0  0
   -1.3849    1.1215    0.0000 N   0  0  0  0  0  0  0  0  0  0  0  0
   -2.1280    0.4523    0.0000 C   0  0  0  0  0  0  0  0  0  0  0  0
   -2.9941    0.9523    0.0000 N   0  0  0  0  0  0  0  0  0  0  0  0
   -0.4067    0.9135    0.0000 C   0  0  3  0  0  0  0  0  0  0  0  0
    0.3364    1.5827    0.0000 O   0  0  0  0  0  0  0  0  0  0  0  0
    1.2024    1.0827    0.0000 C   0  0  3  0  0  0  0  0  0  0  0  0
    2.1160    1.4894    0.0000 C   0  0  0  0  0  0  0  0  0  0  0  0
    2.9250    0.9016    0.0000 O   0  0  0  0  0  0  0  0  0  0  0  0
    0.9945    0.1045    0.0000 C   0  0  3  0  0  0  0  0  0  0  0  0
    1.6637   -0.6386    0.0000 O   0  0  0  0  0  0  0  0  0  0  0  0
    0.0000   -0.0000    0.0000 C   0  0  3  0  0  0  0  0  0  0  0  0
   -0.5000   -0.8660    0.0000 O   0  0  0  0  0  0  0  0  0  0  0  0
  1  2  1  0  0  0  0
  2  3  2  0  0  0  0
  2  4  1  0  0  0  0
  4  8  1  0  0  0  0
  4  5  2  0  0  0  0
  5  6  1  0  0  0  0
  6  7  1  0  0  0  0
  6  9  1  0  0  0  0
  7  8  2  0  0  0  0
  9 16  1  0  0  0  0
  9 10  1  0  0  0  0
 10 11  1  0  0  0  0
 11 12  1  0  0  0  0
 11 14  1  0  0  0  0
 12 13  1  0  0  0  0
 14 15  1  0  0  0  0
 14 16  1  0  0  0  0
 16 17  1  0  0  0  0
M  RAD  2   5   2   8   2
M  END
>  <Supplier>
www.ambinter.com

>  <Ambinter_reference>
Amb37859122

>  <MW>
243.22

$$$$
Amb37862291
 OpenBabel08272102022D

 21 22  0  0  1  0  0  0  0  0999 V2000
   -4.6253    1.5848    0.0000 N   0  0  0  0  0  0  0  0  0  0  0  0
   -4.4264    0.6492    0.0000 C   0  0  0  0  0  0  0  0  0  0  0  0
   -5.1373    0.0091    0.0000 O   0  0  0  0  0  0  0  0  0  0  0  0
   -3.5167    0.3536    0.0000 C   0  0  0  0  0  0  0  0  0  0  0  0
   -2.7429    0.9158    0.0000 N   0  0  0  0  0  0  0  0  0  0  0  0
   -1.9690    0.3536    0.0000 N   0  0  0  0  0  0  0  0  0  0  0  0
   -2.2646   -0.5561    0.0000 C   0  0  0  0  0  0  0  0  0  0  0  0
   -3.2211   -0.5561    0.0000 N   0  0  0  0  0  0  0  0  0  0  0  0
   -0.1496    0.9447    0.0000 C   0  0  1  0  0  0  0  0  0  0  0  0
   -0.2583    1.8951    0.0000 H   0  0  0  0  0  0  0  0  0  0  0  0
    0.7026    1.3790    0.0000 O   0  0  0  0  0  0  0  0  0  0  0  0
    1.3790    0.7026    0.0000 C   0  0  2  0  0  0  0  0  0  0  0  0
    2.2720    0.3598    0.0000 H   0  0  0  0  0  0  0  0  0  0  0  0
    2.1224    1.3046    0.0000 C   0  0  0  0  0  0  0  0  0  0  0  0
    3.0153    0.9618    0.0000 O   0  0  0  0  0  0  0  0  0  0  0  0
    0.9447   -0.1496    0.0000 C   0  0  1  0  0  0  0  0  0  0  0  0
    0.8947   -1.1048    0.0000 H   0  0  0  0  0  0  0  0  0  0  0  0
    1.7470   -0.6706    0.0000 O   0  0  0  0  0  0  0  0  0  0  0  0
    0.0000   -0.0000    0.0000 C   0  0  1  0  0  0  0  0  0  0  0  0
   -0.9239   -0.2476    0.0000 H   0  0  0  0  0  0  0  0  0  0  0  0
   -0.2476   -0.9239    0.0000 O   0  0  0  0  0  0  0  0  0  0  0  0
  1  2  1  0  0  0  0
  2  3  2  0  0  0  0
  2  4  1  0  0  0  0
  4  8  1  0  0  0  0
  4  5  2  0  0  0  0
  5  6  1  0  0  0  0
  6  7  1  0  0  0  0
  6  9  1  0  0  0  0
  7  8  2  0  0  0  0
  9 10  1  6  0  0  0
  9 19  1  0  0  0  0
  9 11  1  0  0  0  0
 11 12  1  0  0  0  0
 12 13  1  1  0  0  0
 12 14  1  0  0  0  0
 12 16  1  0  0  0  0
 14 15  1  0  0  0  0
 16 17  1  6  0  0  0
 16 18  1  0  0  0  0
 16 19  1  0  0  0  0
 19 20  1  6  0  0  0
 19 21  1  0  0  0  0
M  RAD  2   5   2   8   2
M  END
>  <Supplier>
www.ambinter.com

>  <Ambinter_reference>
Amb37862291

>  <MW>
244.205

$$$$
Amb38138722
 OpenBabel08272102022D

 26 27  0  0  1  0  0  0  0  0999 V2000
    4.6121   -2.1279    0.0000 C   0  0  0  0  0  0  0  0  0  0  0  0
    4.7166   -1.1334    0.0000 C   0  0  0  0  0  0  0  0  0  0  0  0
    5.6302   -0.7266    0.0000 O   0  0  0  0  0  0  0  0  0  0  0  0
    3.9076   -0.5456    0.0000 O   0  0  0  0  0  0  0  0  0  0  0  0
    2.9941   -0.9523    0.0000 C   0  0  3  0  0  0  0  0  0  0  0  0
    2.7861   -1.9305    0.0000 C   0  0  3  0  0  0  0  0  0  0  0  0
    3.4553   -2.6736    0.0000 C   0  0  0  0  0  0  0  0  0  0  0  0
    3.1463   -3.6247    0.0000 O   0  0  0  0  0  0  0  0  0  0  0  0
    2.1681   -3.8326    0.0000 C   0  0  0  0  0  0  0  0  0  0  0  0
    1.4990   -3.0894    0.0000 C   0  0  0  0  0  0  0  0  0  0  0  0
    1.8591   -4.7836    0.0000 O   0  0  0  0  0  0  0  0  0  0  0  0
    1.7916   -2.0350    0.0000 O   0  0  0  0  0  0  0  0  0  0  0  0
    1.3849   -1.1215    0.0000 C   0  0  3  0  0  0  0  0  0  0  0  0
    2.1280   -0.4523    0.0000 C   0  0  3  0  0  0  0  0  0  0  0  0
    2.0235    0.5422    0.0000 O   0  0  0  0  0  0  0  0  0  0  0  0
    2.8325    1.1300    0.0000 C   0  0  0  0  0  0  0  0  0  0  0  0
    2.7280    2.1245    0.0000 C   0  0  0  0  0  0  0  0  0  0  0  0
    3.7461    0.7232    0.0000 O   0  0  0  0  0  0  0  0  0  0  0  0
    0.4067   -0.9135    0.0000 N   0  0  0  0  0  0  0  0  0  0  0  0
   -0.3364   -1.5827    0.0000 C   0  0  0  0  0  0  0  0  0  0  0  0
   -1.2024   -1.0827    0.0000 N   0  0  0  0  0  0  0  0  0  0  0  0
   -0.9945   -0.1045    0.0000 C   0  0  0  0  0  0  0  0  0  0  0  0
    0.0000    0.0000    0.0000 N   0  0  0  0  0  0  0  0  0  0  0  0
   -1.6637    0.6386    0.0000 C   0  0  0  0  0  0  0  0  0  0  0  0
   -1.3546    1.5897    0.0000 N   0  0  0  0  0  0  0  0  0  0  0  0
   -2.6418    0.4307    0.0000 O   0  0  0  0  0  0  0  0  0  0  0  0
  1  2  1  0  0  0  0
  2  3  2  0  0  0  0
  2  4  1  0  0  0  0
  4  5  1  0  0  0  0
  5 14  1  0  0  0  0
  5  6  1  0  0  0  0
  6  7  1  0  0  0  0
  6 12  1  0  0  0  0
  7  8  1  0  0  0  0
  8  9  1  0  0  0  0
  9 10  1  0  0  0  0
  9 11  2  0  0  0  0
 12 13  1  0  0  0  0
 13 14  1  0  0  0  0
 13 19  1  0  0  0  0
 14 15  1  0  0  0  0
 15 16  1  0  0  0  0
 16 17  1  0  0  0  0
 16 18  2  0  0  0  0
 19 23  1  0  0  0  0
 19 20  1  0  0  0  0
 20 21  2  0  0  0  0
 21 22  1  0  0  0  0
 22 23  2  0  0  0  0
 22 24  1  0  0  0  0
 24 25  1  0  0  0  0
 24 26  2  0  0  0  0
M  RAD  2  21   2  23   2
M  END
>  <Supplier>
www.ambinter.com

>  <Ambinter_reference>
Amb38138722

>  <MW>
370.315

$$$$
Amb38139559
 OpenBabel08272102022D

 18 19  0  0  1  0  0  0  0  0999 V2000
   -2.0504    3.0009    0.0000 C   0  0  0  0  0  0  0  0  0  0  0  0
   -1.7916    2.0350    0.0000 C   0  0  3  0  0  0  0  0  0  0  0  0
   -0.7935    2.0965    0.0000 O   0  0  0  0  0  0  0  0  0  0  0  0
   -1.3849    1.1215    0.0000 C   0  0  3  0  0  0  0  0  0  0  0  0
   -2.1280    0.4523    0.0000 O   0  0  0  0  0  0  0  0  0  0  0  0
   -2.9941    0.9523    0.0000 C   0  0  3  0  0  0  0  0  0  0  0  0
   -3.9076    0.5456    0.0000 C   0  0  0  0  0  0  0  0  0  0  0  0
   -4.7166    1.1334    0.0000 O   0  0  0  0  0  0  0  0  0  0  0  0
   -2.7861    1.9305    0.0000 C   0  0  3  0  0  0  0  0  0  0  0  0
   -3.4553    2.6736    0.0000 O   0  0  0  0  0  0  0  0  0  0  0  0
   -0.4067    0.9135    0.0000 N   0  0  0  0  0  0  0  0  0  0  0  0
    0.3364    1.5827    0.0000 C   0  0  0  0  0  0  0  0  0  0  0  0
    1.2024    1.0827    0.0000 N   0  0  0  0  0  0  0  0  0  0  0  0
    0.9945    0.1045    0.0000 C   0  0  0  0  0  0  0  0  0  0  0  0
    0.0000   -0.0000    0.0000 N   0  0  0  0  0  0  0  0  0  0  0  0
    1.6637   -0.6386    0.0000 C   0  0  0  0  0  0  0  0  0  0  0  0
    1.3546   -1.5897    0.0000 N   0  0  0  0  0  0  0  0  0  0  0  0
    2.6418   -0.4307    0.0000 O   0  0  0  0  0  0  0  0  0  0  0  0
  1  2  1  0  0  0  0
  2  9  1  0  0  0  0
  2  3  1  0  0  0  0
  2  4  1  0  0  0  0
  4  5  1  0  0  0  0
  4 11  1  0  0  0  0
  5  6  1  0  0  0  0
  6  7  1  0  0  0  0
  6  9  1  0  0  0  0
  7  8  1  0  0  0  0
  9 10  1  0  0  0  0
 11 15  1  0  0  0  0
 11 12  1  0  0  0  0
 12 13  2  0  0  0  0
 13 14  1  0  0  0  0
 14 15  2  0  0  0  0
 14 16  1  0  0  0  0
 16 17  1  0  0  0  0
 16 18  2  0  0  0  0
M  RAD  2  13   2  15   2
M  END
>  <Supplier>
www.ambinter.com

>  <Ambinter_reference>
Amb38139559

>  <MW>
258.231

$$$$
Amb38159149
 OpenBabel08272102022D

 16 17  0  0  1  0  0  0  0  0999 V2000
   -3.1463    3.6247    0.0000 N   0  0  0  0  0  0  0  0  0  0  0  0
   -3.4553    2.6736    0.0000 C   0  0  0  0  0  0  0  0  0  0  0  0
   -4.4334    2.4657    0.0000 O   0  0  0  0  0  0  0  0  0  0  0  0
   -2.7861    1.9305    0.0000 C   0  0  0  0  0  0  0  0  0  0  0  0
   -1.7916    2.0350    0.0000 N   0  0  0  0  0  0  0  0  0  0  0  0
   -1.3849    1.1215    0.0000 N   0  0  0  0  0  0  0  0  0  0  0  0
   -2.1280    0.4523    0.0000 C   0  0  0  0  0  0  0  0  0  0  0  0
   -2.9941    0.9523    0.0000 N   0  0  0  0  0  0  0  0  0  0  0  0
   -0.4067    0.9135    0.0000 C   0  0  3  0  0  0  0  0  0  0  0  0
    0.3364    1.5827    0.0000 C   0  0  0  0  0  0  0  0  0  0  0  0
    1.2024    1.0827    0.0000 C   0  0  3  0  0  0  0  0  0  0  0  0
    2.1160    1.4894    0.0000 O   0  0  0  0  0  0  0  0  0  0  0  0
    0.9945    0.1045    0.0000 C   0  0  3  0  0  0  0  0  0  0  0  0
    1.6637   -0.6386    0.0000 C   0  0  0  0  0  0  0  0  0  0  0  0
    2.6418   -0.4307    0.0000 O   0  0  0  0  0  0  0  0  0  0  0  0
    0.0000   -0.0000    0.0000 O   0  0  0  0  0  0  0  0  0  0  0  0
  1  2  1  0  0  0  0
  2  3  2  0  0  0  0
  2  4  1  0  0  0  0
  4  8  1  0  0  0  0
  4  5  2  0  0  0  0
  5  6  1  0  0  0  0
  6  7  1  0  0  0  0
  6  9  1  0  0  0  0
  7  8  2  0  0  0  0
  9 16  1  0  0  0  0
  9 10  1  0  0  0  0
 10 11  1  0  0  0  0
 11 12  1  0  0  0  0
 11 13  1  0  0  0  0
 13 14  1  0  0  0  0
 13 16  1  0  0  0  0
 14 15  1  0  0  0  0
M  RAD  2   5   2   8   2
M  END
>  <Supplier>
www.ambinter.com

>  <Ambinter_reference>
Amb38159149

>  <MW>
228.205

$$$$
Amb38160865
 OpenBabel08272102022D

 27 28  0  0  1  0  0  0  0  0999 V2000
   -2.1681    3.8326    0.0000 C   0  0  0  0  0  0  0  0  0  0  0  0
   -3.1463    3.6247    0.0000 O   0  0  0  0  0  0  0  0  0  0  0  0
   -3.4553    2.6736    0.0000 C   0  0  0  0  0  0  0  0  0  0  0  0
   -4.4334    2.4657    0.0000 O   0  0  0  0  0  0  0  0  0  0  0  0
   -2.7861    1.9305    0.0000 C   0  0  0  0  0  0  0  0  0  0  0  0
   -1.7916    2.0350    0.0000 N   0  0  0  0  0  0  0  0  0  0  0  0
   -1.3849    1.1215    0.0000 N   0  0  0  0  0  0  0  0  0  0  0  0
   -2.1280    0.4523    0.0000 C   0  0  0  0  0  0  0  0  0  0  0  0
   -2.9941    0.9523    0.0000 N   0  0  0  0  0  0  0  0  0  0  0  0
   -0.4067    0.9135    0.0000 C   0  0  3  0  0  0  0  0  0  0  0  0
    0.3364    1.5827    0.0000 O   0  0  0  0  0  0  0  0  0  0  0  0
    1.2024    1.0827    0.0000 C   0  0  3  0  0  0  0  0  0  0  0  0
    2.1160    1.4894    0.0000 C   0  0  0  0  0  0  0  0  0  0  0  0
    2.2205    2.4839    0.0000 O   0  0  0  0  0  0  0  0  0  0  0  0
    1.4115    3.0717    0.0000 C   0  0  0  0  0  0  0  0  0  0  0  0
    0.4979    2.6650    0.0000 C   0  0  0  0  0  0  0  0  0  0  0  0
    1.5160    4.0662    0.0000 O   0  0  0  0  0  0  0  0  0  0  0  0
    0.9945    0.1045    0.0000 C   0  0  3  0  0  0  0  0  0  0  0  0
    1.6637   -0.6386    0.0000 O   0  0  0  0  0  0  0  0  0  0  0  0
    2.6418   -0.4307    0.0000 C   0  0  0  0  0  0  0  0  0  0  0  0
    2.9508    0.5204    0.0000 C   0  0  0  0  0  0  0  0  0  0  0  0
    3.3109   -1.1738    0.0000 O   0  0  0  0  0  0  0  0  0  0  0  0
    0.0000   -0.0000    0.0000 C   0  0  3  0  0  0  0  0  0  0  0  0
   -0.5000   -0.8660    0.0000 O   0  0  0  0  0  0  0  0  0  0  0  0
    0.0000   -1.7321    0.0000 C   0  0  0  0  0  0  0  0  0  0  0  0
   -0.5000   -2.5981    0.0000 C   0  0  0  0  0  0  0  0  0  0  0  0
    1.0000   -1.7321    0.0000 O   0  0  0  0  0  0  0  0  0  0  0  0
  1  2  1  0  0  0  0
  2  3  1  0  0  0  0
  3  4  2  0  0  0  0
  3  5  1  0  0  0  0
  5  9  1  0  0  0  0
  5  6  2  0  0  0  0
  6  7  1  0  0  0  0
  7  8  1  0  0  0  0
  7 10  1  0  0  0  0
  8  9  2  0  0  0  0
 10 23  1  0  0  0  0
 10 11  1  0  0  0  0
 11 12  1  0  0  0  0
 12 13  1  0  0  0  0
 12 18  1  0  0  0  0
 13 14  1  0  0  0  0
 14 15  1  0  0  0  0
 15 16  1  0  0  0  0
 15 17  2  0  0  0  0
 18 19  1  0  0  0  0
 18 23  1  0  0  0  0
 19 20  1  0  0  0  0
 20 21  1  0  0  0  0
 20 22  2  0  0  0  0
 23 24  1  0  0  0  0
 24 25  1  0  0  0  0
 25 26  1  0  0  0  0
 25 27  2  0  0  0  0
M  RAD  2   6   2   9   2
M  END
>  <Supplier>
www.ambinter.com

>  <Ambinter_reference>
Amb38160865

>  <MW>
385.326

$$$$
Amb38161893
 OpenBabel08272102022D

 21 22  0  0  1  0  0  0  0  0999 V2000
   -5.4388    3.9570    0.0000 N   0  0  0  0  0  0  0  0  0  0  0  0
   -6.1079    3.2139    0.0000 C   0  0  0  0  0  0  0  0  0  0  0  0
   -7.0861    3.4218    0.0000 O   0  0  0  0  0  0  0  0  0  0  0  0
   -5.7989    2.2628    0.0000 C   0  0  0  0  0  0  0  0  0  0  0  0
   -4.8479    1.9538    0.0000 N   0  0  0  0  0  0  0  0  0  0  0  0
   -4.8479    0.9538    0.0000 N   0  0  0  0  0  0  0  0  0  0  0  0
   -5.7989    0.6448    0.0000 C   0  0  0  0  0  0  0  0  0  0  0  0
   -6.3867    1.4538    0.0000 N   0  0  0  0  0  0  0  0  0  0  0  0
   -4.0388    0.3660    0.0000 C   0  0  3  0  0  0  0  0  0  0  0  0
   -3.0878    0.6750    0.0000 O   0  0  0  0  0  0  0  0  0  0  0  0
   -2.5000   -0.1340    0.0000 C   0  0  3  0  0  0  0  0  0  0  0  0
   -1.5000   -0.1340    0.0000 C   0  0  0  0  0  0  0  0  0  0  0  0
   -1.0000   -1.0000    0.0000 O   0  0  0  0  0  0  0  0  0  0  0  0
    0.0000   -1.0000    0.0000 P   0  0  0  0  0  0  0  0  0  0  0  0
   -0.0000   -2.0000    0.0000 O   0  0  0  0  0  0  0  0  0  0  0  0
    1.0000   -1.0000    0.0000 O   0  0  0  0  0  0  0  0  0  0  0  0
    0.0000   -0.0000    0.0000 O   0  0  0  0  0  0  0  0  0  0  0  0
   -3.0878   -0.9430    0.0000 C   0  0  3  0  0  0  0  0  0  0  0  0
   -2.7788   -1.8940    0.0000 O   0  0  0  0  0  0  0  0  0  0  0  0
   -4.0388   -0.6340    0.0000 C   0  0  3  0  0  0  0  0  0  0  0  0
   -4.8479   -1.2218    0.0000 O   0  0  0  0  0  0  0  0  0  0  0  0
  1  2  1  0  0  0  0
  2  3  2  0  0  0  0
  2  4  1  0  0  0  0
  4  8  1  0  0  0  0
  4  5  2  0  0  0  0
  5  6  1  0  0  0  0
  6  7  1  0  0  0  0
  6  9  1  0  0  0  0
  7  8  2  0  0  0  0
  9 20  1  0  0  0  0
  9 10  1  0  0  0  0
 10 11  1  0  0  0  0
 11 12  1  0  0  0  0
 11 18  1  0  0  0  0
 12 13  1  0  0  0  0
 13 14  1  0  0  0  0
 14 15  1  0  0  0  0
 14 16  1  0  0  0  0
 14 17  2  0  0  0  0
 18 19  1  0  0  0  0
 18 20  1  0  0  0  0
 20 21  1  0  0  0  0
M  END
>  <Supplier>
www.ambinter.com

>  <Ambinter_reference>
Amb38161893

>  <MW>
324.185

$$$$
Amb38164021
 OpenBabel08272102022D

 17 18  0  0  1  0  0  0  0  0999 V2000
   -3.1463    3.6247    0.0000 N   0  0  0  0  0  0  0  0  0  0  0  0
   -3.4553    2.6736    0.0000 C   0  0  0  0  0  0  0  0  0  0  0  0
   -4.4334    2.4657    0.0000 O   0  0  0  0  0  0  0  0  0  0  0  0
   -2.7861    1.9305    0.0000 C   0  0  0  0  0  0  0  0  0  0  0  0
   -1.7916    2.0350    0.0000 N   0  0  0  0  0  0  0  0  0  0  0  0
   -1.3849    1.1215    0.0000 N   0  0  0  0  0  0  0  0  0  0  0  0
   -2.1280    0.4523    0.0000 C   0  0  0  0  0  0  0  0  0  0  0  0
   -2.9941    0.9523    0.0000 N   0  0  0  0  0  0  0  0  0  0  0  0
   -0.4067    0.9135    0.0000 C   0  0  3  0  0  0  0  0  0  0  0  0
    0.3364    1.5827    0.0000 O   0  0  0  0  0  0  0  0  0  0  0  0
    1.2024    1.0827    0.0000 C   0  0  3  0  0  0  0  0  0  0  0  0
    2.1160    1.4894    0.0000 C   0  0  0  0  0  0  0  0  0  0  0  0
    2.9250    0.9016    0.0000 O   0  0  0  0  0  0  0  0  0  0  0  0
    0.9945    0.1045    0.0000 C   0  0  3  0  0  0  0  0  0  0  0  0
    1.6637   -0.6386    0.0000 O   0  0  0  0  0  0  0  0  0  0  0  0
    0.0000   -0.0000    0.0000 C   0  0  3  0  0  0  0  0  0  0  0  0
   -0.5000   -0.8660    0.0000 O   0  0  0  0  0  0  0  0  0  0  0  0
  1  2  1  0  0  0  0
  2  3  2  0  0  0  0
  2  4  1  0  0  0  0
  4  8  1  0  0  0  0
  4  5  2  0  0  0  0
  5  6  1  0  0  0  0
  6  7  1  0  0  0  0
  6  9  1  0  0  0  0
  7  8  2  0  0  0  0
  9 16  1  0  0  0  0
  9 10  1  0  0  0  0
 10 11  1  0  0  0  0
 11 12  1  0  0  0  0
 11 14  1  0  0  0  0
 12 13  1  0  0  0  0
 14 15  1  0  0  0  0
 14 16  1  0  0  0  0
 16 17  1  0  0  0  0
M  RAD  2   5   2   8   2
M  ISO  2   2  13   4  13
M  END
>  <Supplier>
www.ambinter.com

>  <Ambinter_reference>
Amb38164021

>  <MW>
246.19

$$$$
Amb4490256
 OpenBabel08272102022D

 31 32  0  0  1  0  0  0  0  0999 V2000
    5.1943    0.3611    0.0000 C   0  0  0  0  0  0  0  0  0  0  0  0
    4.7999    1.2469    0.0000 O   0  0  0  0  0  0  0  0  0  0  0  0
    3.8355    1.3483    0.0000 C   0  0  0  0  0  0  0  0  0  0  0  0
    3.4411    2.2341    0.0000 O   0  0  0  0  0  0  0  0  0  0  0  0
    3.2655    0.5638    0.0000 C   0  0  0  0  0  0  0  0  0  0  0  0
    3.5652   -0.3585    0.0000 N   0  0  0  0  0  0  0  0  0  0  0  0
    2.7807   -0.9284    0.0000 C   0  0  0  0  0  0  0  0  0  0  0  0
    1.9962   -0.3585    0.0000 N   0  0  0  0  0  0  0  0  0  0  0  0
    2.2958    0.5638    0.0000 N   0  0  0  0  0  0  0  0  0  0  0  0
    0.1517   -0.9578    0.0000 C   0  0  2  0  0  0  0  0  0  0  0  0
    0.2619   -1.9212    0.0000 H   0  0  0  0  0  0  0  0  0  0  0  0
   -0.7123   -1.3980    0.0000 O   0  0  0  0  0  0  0  0  0  0  0  0
   -1.3980   -0.7123    0.0000 C   0  0  1  0  0  0  0  0  0  0  0  0
   -2.3033   -0.3648    0.0000 H   0  0  0  0  0  0  0  0  0  0  0  0
   -0.9578    0.1517    0.0000 C   0  0  2  0  0  0  0  0  0  0  0  0
   -0.9070    1.1201    0.0000 H   0  0  0  0  0  0  0  0  0  0  0  0
   -0.0000   -0.0000    0.0000 C   0  0  1  0  0  0  0  0  0  0  0  0
    0.9367    0.2510    0.0000 H   0  0  0  0  0  0  0  0  0  0  0  0
    0.2510    0.9367    0.0000 O   0  0  0  0  0  0  0  0  0  0  0  0
   -0.4347    1.6223    0.0000 C   0  0  0  0  0  0  0  0  0  0  0  0
   -0.1837    2.5590    0.0000 O   0  0  0  0  0  0  0  0  0  0  0  0
   -1.3714    1.3714    0.0000 C   0  0  0  0  0  0  0  0  0  0  0  0
   -1.7710    0.6798    0.0000 O   0  0  0  0  0  0  0  0  0  0  0  0
   -2.6350    0.2396    0.0000 C   0  0  0  0  0  0  0  0  0  0  0  0
   -3.4483    0.7677    0.0000 O   0  0  0  0  0  0  0  0  0  0  0  0
   -2.6858   -0.7288    0.0000 C   0  0  0  0  0  0  0  0  0  0  0  0
   -2.1516   -1.3226    0.0000 C   0  0  0  0  0  0  0  0  0  0  0  0
   -1.9999   -2.2803    0.0000 O   0  0  0  0  0  0  0  0  0  0  0  0
   -2.7535   -2.8906    0.0000 C   0  0  0  0  0  0  0  0  0  0  0  0
   -2.6018   -3.8483    0.0000 O   0  0  0  0  0  0  0  0  0  0  0  0
   -3.6588   -2.5431    0.0000 C   0  0  0  0  0  0  0  0  0  0  0  0
  1  2  1  0  0  0  0
  2  3  1  0  0  0  0
  3  4  2  0  0  0  0
  3  5  1  0  0  0  0
  5  9  2  0  0  0  0
  5  6  1  0  0  0  0
  6  7  2  0  0  0  0
  7  8  1  0  0  0  0
  8  9  1  0  0  0  0
  8 10  1  0  0  0  0
 10 11  1  1  0  0  0
 10 17  1  0  0  0  0
 10 12  1  0  0  0  0
 12 13  1  0  0  0  0
 13 14  1  1  0  0  0
 13 15  1  0  0  0  0
 13 27  1  0  0  0  0
 15 16  1  6  0  0  0
 15 17  1  0  0  0  0
 15 23  1  0  0  0  0
 17 18  1  6  0  0  0
 17 19  1  0  0  0  0
 19 20  1  0  0  0  0
 20 21  2  0  0  0  0
 20 22  1  0  0  0  0
 23 24  1  0  0  0  0
 24 25  2  0  0  0  0
 24 26  1  0  0  0  0
 27 28  1  0  0  0  0
 28 29  1  0  0  0  0
 29 30  2  0  0  0  0
 29 31  1  0  0  0  0
M  END
>  <Supplier>
www.ambinter.com

>  <Ambinter_reference>
Amb4490256

>  <MW>
385.326

$$$$
Amb533332
 OpenBabel08272102022D

 21 22  0  0  1  0  0  0  0  0999 V2000
    4.3764   -2.5023    0.0000 O   0  0  0  0  0  0  0  0  0  0  0  0
    4.0180   -1.5687    0.0000 C   0  0  0  0  0  0  0  0  0  0  0  0
    3.0303   -1.4123    0.0000 C   0  0  1  0  0  0  0  0  0  0  0  0
    2.6805   -2.3491    0.0000 H   0  0  0  0  0  0  0  0  0  0  0  0
    2.0303   -1.4123    0.0000 O   0  0  0  0  0  0  0  0  0  0  0  0
    1.7213   -0.4612    0.0000 C   0  0  2  0  0  0  0  0  0  0  0  0
    1.0522    0.2819    0.0000 H   0  0  0  0  0  0  0  0  0  0  0  0
    2.5303    0.1266    0.0000 C   0  0  1  0  0  0  0  0  0  0  0  0
    3.0303    0.9926    0.0000 H   0  0  0  0  0  0  0  0  0  0  0  0
    3.3393   -0.4612    0.0000 C   0  0  2  0  0  0  0  0  0  0  0  0
    4.3175   -0.6691    0.0000 H   0  0  0  0  0  0  0  0  0  0  0  0
    4.0085    0.2819    0.0000 O   0  0  0  0  0  0  0  0  0  0  0  0
    2.0303    0.9926    0.0000 O   0  0  0  0  0  0  0  0  0  0  0  0
    0.7431   -0.6691    0.0000 N   0  0  0  0  0  0  0  0  0  0  0  0
    0.3364   -1.5827    0.0000 C   0  0  0  0  0  0  0  0  0  0  0  0
   -0.6581   -1.4781    0.0000 N   0  0  0  0  0  0  0  0  0  0  0  0
   -0.8660   -0.5000    0.0000 C   0  0  0  0  0  0  0  0  0  0  0  0
   -0.0000   -0.0000    0.0000 N   0  0  0  0  0  0  0  0  0  0  0  0
   -1.7796   -0.0933    0.0000 C   0  0  0  0  0  0  0  0  0  0  0  0
   -1.8841    0.9013    0.0000 O   0  0  0  0  0  0  0  0  0  0  0  0
   -2.5886   -0.6810    0.0000 N   0  0  0  0  0  0  0  0  0  0  0  0
  1  2  1  0  0  0  0
  2  3  1  0  0  0  0
  3  4  1  6  0  0  0
  3 10  1  0  0  0  0
  3  5  1  0  0  0  0
  5  6  1  0  0  0  0
  6  7  1  6  0  0  0
  6  8  1  0  0  0  0
  6 14  1  0  0  0  0
  8  9  1  1  0  0  0
  8 10  1  0  0  0  0
  8 13  1  0  0  0  0
 10 11  1  1  0  0  0
 10 12  1  0  0  0  0
 14 18  1  0  0  0  0
 14 15  1  0  0  0  0
 15 16  2  0  0  0  0
 16 17  1  0  0  0  0
 17 18  2  0  0  0  0
 17 19  1  0  0  0  0
 19 20  2  0  0  0  0
 19 21  1  0  0  0  0
M  END
>  <Supplier>
www.ambinter.com

>  <Ambinter_reference>
Amb533332

>  <MW>
244.205

$$$$
Amb8387103
 OpenBabel08272102022D

 20 21  0  0  1  0  0  0  0  0999 V2000
    4.3764   -2.5023    0.0000 O   0  0  0  0  0  0  0  0  0  0  0  0
    4.0180   -1.5687    0.0000 C   0  0  0  0  0  0  0  0  0  0  0  0
    3.0303   -1.4123    0.0000 C   0  0  1  0  0  0  0  0  0  0  0  0
    2.6805   -2.3491    0.0000 H   0  0  0  0  0  0  0  0  0  0  0  0
    2.0303   -1.4123    0.0000 O   0  0  0  0  0  0  0  0  0  0  0  0
    1.7213   -0.4612    0.0000 C   0  0  2  0  0  0  0  0  0  0  0  0
    1.0522    0.2819    0.0000 H   0  0  0  0  0  0  0  0  0  0  0  0
    2.5303    0.1266    0.0000 C   0  0  3  0  0  0  0  0  0  0  0  0
    3.3393   -0.4612    0.0000 C   0  0  1  0  0  0  0  0  0  0  0  0
    4.3175   -0.6691    0.0000 H   0  0  0  0  0  0  0  0  0  0  0  0
    4.0085    0.2819    0.0000 O   0  0  0  0  0  0  0  0  0  0  0  0
    2.5303    1.1266    0.0000 O   0  0  0  0  0  0  0  0  0  0  0  0
    0.7431   -0.6691    0.0000 N   0  0  0  0  0  0  0  0  0  0  0  0
    0.3364   -1.5827    0.0000 C   0  0  0  0  0  0  0  0  0  0  0  0
   -0.6581   -1.4781    0.0000 N   0  0  0  0  0  0  0  0  0  0  0  0
   -0.8660   -0.5000    0.0000 C   0  0  0  0  0  0  0  0  0  0  0  0
   -0.0000   -0.0000    0.0000 N   0  0  0  0  0  0  0  0  0  0  0  0
   -1.7796   -0.0933    0.0000 C   0  0  0  0  0  0  0  0  0  0  0  0
   -1.8841    0.9013    0.0000 O   0  0  0  0  0  0  0  0  0  0  0  0
   -2.5886   -0.6810    0.0000 N   0  0  0  0  0  0  0  0  0  0  0  0
  1  2  1  0  0  0  0
  2  3  1  0  0  0  0
  3  4  1  6  0  0  0
  3  9  1  0  0  0  0
  3  5  1  0  0  0  0
  5  6  1  0  0  0  0
  6  7  1  6  0  0  0
  6  8  1  0  0  0  0
  6 13  1  0  0  0  0
  8  9  1  0  0  0  0
  8 12  1  0  0  0  0
  9 10  1  6  0  0  0
  9 11  1  0  0  0  0
 13 17  1  0  0  0  0
 13 14  1  0  0  0  0
 14 15  2  0  0  0  0
 15 16  1  0  0  0  0
 16 17  2  0  0  0  0
 16 18  1  0  0  0  0
 18 19  2  0  0  0  0
 18 20  1  0  0  0  0
M  END
>  <Supplier>
www.ambinter.com

>  <Ambinter_reference>
Amb8387103

>  <MW>
244.205

$$$$
Amb8397616
 OpenBabel08272102022D

 20 21  0  0  1  0  0  0  0  0999 V2000
   -4.2388    2.8738    0.0000 O   0  0  0  0  0  0  0  0  0  0  0  0
   -3.7848    1.9828    0.0000 C   0  0  0  0  0  0  0  0  0  0  0  0
   -2.7861    1.9305    0.0000 C   0  0  1  0  0  0  0  0  0  0  0  0
   -2.5362    2.8987    0.0000 H   0  0  0  0  0  0  0  0  0  0  0  0
   -1.7916    2.0350    0.0000 O   0  0  0  0  0  0  0  0  0  0  0  0
   -1.3849    1.1215    0.0000 C   0  0  3  0  0  0  0  0  0  0  0  0
   -2.1280    0.4523    0.0000 C   0  0  2  0  0  0  0  0  0  0  0  0
   -2.5348   -0.4612    0.0000 H   0  0  0  0  0  0  0  0  0  0  0  0
   -2.9941    0.9523    0.0000 C   0  0  1  0  0  0  0  0  0  0  0  0
   -3.9886    1.0569    0.0000 H   0  0  0  0  0  0  0  0  0  0  0  0
   -3.5818    0.1433    0.0000 O   0  0  0  0  0  0  0  0  0  0  0  0
   -1.5402   -0.3567    0.0000 O   0  0  0  0  0  0  0  0  0  0  0  0
   -0.4067    0.9135    0.0000 N   0  0  0  0  0  0  0  0  0  0  0  0
    0.3364    1.5827    0.0000 C   0  0  0  0  0  0  0  0  0  0  0  0
    1.2024    1.0827    0.0000 N   0  0  0  0  0  0  0  0  0  0  0  0
    0.9945    0.1045    0.0000 C   0  0  0  0  0  0  0  0  0  0  0  0
    0.0000   -0.0000    0.0000 N   0  0  0  0  0  0  0  0  0  0  0  0
    1.6637   -0.6386    0.0000 C   0  0  0  0  0  0  0  0  0  0  0  0
    1.3546   -1.5897    0.0000 O   0  0  0  0  0  0  0  0  0  0  0  0
    2.6418   -0.4307    0.0000 N   0  0  0  0  0  0  0  0  0  0  0  0
  1  2  1  0  0  0  0
  2  3  1  0  0  0  0
  3  4  1  6  0  0  0
  3  9  1  0  0  0  0
  3  5  1  0  0  0  0
  5  6  1  0  0  0  0
  6  7  1  0  0  0  0
  6 13  1  0  0  0  0
  7  8  1  6  0  0  0
  7  9  1  0  0  0  0
  7 12  1  0  0  0  0
  9 10  1  6  0  0  0
  9 11  1  0  0  0  0
 13 17  1  0  0  0  0
 13 14  1  0  0  0  0
 14 15  2  0  0  0  0
 15 16  1  0  0  0  0
 16 17  2  0  0  0  0
 16 18  1  0  0  0  0
 18 19  2  0  0  0  0
 18 20  1  0  0  0  0
M  ISO  2  16  13  18  13
M  END
>  <Supplier>
www.ambinter.com

>  <Ambinter_reference>
Amb8397616

>  <MW>
246.19

$$$$
Amb8605676
 OpenBabel08272102022D

 23 24  0  0  1  0  0  0  0  0999 V2000
    2.0235    0.5422    0.0000 O   0  0  0  0  0  0  0  0  0  0  0  0
    2.1280   -0.4523    0.0000 C   0  0  3  0  0  0  0  0  0  0  0  0
    2.9941   -0.9523    0.0000 C   0  0  3  0  0  0  0  0  0  0  0  0
    3.9076   -0.5456    0.0000 O   0  0  0  0  0  0  0  0  0  0  0  0
    2.7861   -1.9305    0.0000 C   0  0  3  0  0  0  0  0  0  0  0  0
    1.7916   -2.0350    0.0000 O   0  0  0  0  0  0  0  0  0  0  0  0
    1.3849   -1.1215    0.0000 C   0  0  3  0  0  0  0  0  0  0  0  0
    0.4067   -0.9135    0.0000 N   0  0  0  0  0  0  0  0  0  0  0  0
   -0.3364   -1.5827    0.0000 C   0  0  0  0  0  0  0  0  0  0  0  0
   -1.2024   -1.0827    0.0000 N   0  0  0  0  0  0  0  0  0  0  0  0
   -0.9945   -0.1045    0.0000 C   0  0  0  0  0  0  0  0  0  0  0  0
    0.0000   -0.0000    0.0000 N   0  0  0  0  0  0  0  0  0  0  0  0
   -1.6637    0.6386    0.0000 C   0  0  0  0  0  0  0  0  0  0  0  0
   -1.3546    1.5897    0.0000 O   0  0  0  0  0  0  0  0  0  0  0  0
   -2.6418    0.4307    0.0000 N   0  0  0  0  0  0  0  0  0  0  0  0
    3.4553   -2.6736    0.0000 C   0  0  0  0  0  0  0  0  0  0  0  0
    4.4334   -2.4657    0.0000 O   0  0  0  0  0  0  0  0  0  0  0  0
    5.1026   -3.2089    0.0000 C   0  0  0  0  0  0  0  0  0  0  0  0
    4.7935   -4.1599    0.0000 O   0  0  0  0  0  0  0  0  0  0  0  0
    6.0807   -3.0009    0.0000 C   0  0  0  0  0  0  0  0  0  0  0  0
    6.8238   -2.3318    0.0000 C   0  0  0  0  0  0  0  0  0  0  0  0
    5.8728   -2.0228    0.0000 C   0  0  0  0  0  0  0  0  0  0  0  0
    6.7498   -3.7441    0.0000 C   0  0  0  0  0  0  0  0  0  0  0  0
  1  2  1  0  0  0  0
  2  7  1  0  0  0  0
  2  3  1  0  0  0  0
  3  4  1  0  0  0  0
  3  5  1  0  0  0  0
  5  6  1  0  0  0  0
  5 16  1  0  0  0  0
  6  7  1  0  0  0  0
  7  8  1  0  0  0  0
  8 12  1  0  0  0  0
  8  9  1  0  0  0  0
  9 10  2  0  0  0  0
 10 11  1  0  0  0  0
 11 12  2  0  0  0  0
 11 13  1  0  0  0  0
 13 14  2  0  0  0  0
 13 15  1  0  0  0  0
 16 17  1  0  0  0  0
 17 18  1  0  0  0  0
 18 19  2  0  0  0  0
 18 20  1  0  0  0  0
 20 21  1  0  0  0  0
 20 22  1  0  0  0  0
 20 23  1  0  0  0  0
M  END
>  <Supplier>
www.ambinter.com

>  <Ambinter_reference>
Amb8605676

>  <MW>
328.321

$$$$
Amb9794503
 OpenBabel08272102022D

 20 21  0  0  1  0  0  0  0  0999 V2000
    4.7935   -4.1599    0.0000 C   0  0  0  0  0  0  0  0  0  0  0  0
    5.1026   -3.2089    0.0000 C   0  0  0  0  0  0  0  0  0  0  0  0
    6.0807   -3.0009    0.0000 O   0  0  0  0  0  0  0  0  0  0  0  0
    4.4334   -2.4657    0.0000 O   0  0  0  0  0  0  0  0  0  0  0  0
    3.4553   -2.6736    0.0000 C   0  0  0  0  0  0  0  0  0  0  0  0
    2.7861   -1.9305    0.0000 C   0  0  3  0  0  0  0  0  0  0  0  0
    1.7916   -2.0350    0.0000 O   0  0  0  0  0  0  0  0  0  0  0  0
    1.3849   -1.1215    0.0000 C   0  0  3  0  0  0  0  0  0  0  0  0
    2.1280   -0.4523    0.0000 C   0  0  3  0  0  0  0  0  0  0  0  0
    2.9941   -0.9523    0.0000 C   0  0  3  0  0  0  0  0  0  0  0  0
    3.9076   -0.5456    0.0000 O   0  0  0  0  0  0  0  0  0  0  0  0
    2.0235    0.5422    0.0000 O   0  0  0  0  0  0  0  0  0  0  0  0
    0.4067   -0.9135    0.0000 N   0  0  0  0  0  0  0  0  0  0  0  0
   -0.3364   -1.5827    0.0000 C   0  0  0  0  0  0  0  0  0  0  0  0
   -1.2024   -1.0827    0.0000 N   0  0  0  0  0  0  0  0  0  0  0  0
   -0.9945   -0.1045    0.0000 C   0  0  0  0  0  0  0  0  0  0  0  0
    0.0000    0.0000    0.0000 N   0  0  0  0  0  0  0  0  0  0  0  0
   -1.6637    0.6386    0.0000 C   0  0  0  0  0  0  0  0  0  0  0  0
   -1.3546    1.5897    0.0000 O   0  0  0  0  0  0  0  0  0  0  0  0
   -2.6418    0.4307    0.0000 N   0  0  0  0  0  0  0  0  0  0  0  0
  1  2  1  0  0  0  0
  2  3  2  0  0  0  0
  2  4  1  0  0  0  0
  4  5  1  0  0  0  0
  5  6  1  0  0  0  0
  6 10  1  0  0  0  0
  6  7  1  0  0  0  0
  7  8  1  0  0  0  0
  8  9  1  0  0  0  0
  8 13  1  0  0  0  0
  9 10  1  0  0  0  0
  9 12  1  0  0  0  0
 10 11  1  0  0  0  0
 13 17  1  0  0  0  0
 13 14  1  0  0  0  0
 14 15  2  0  0  0  0
 15 16  1  0  0  0  0
 16 17  2  0  0  0  0
 16 18  1  0  0  0  0
 18 19  2  0  0  0  0
 18 20  1  0  0  0  0
M  END
>  <Supplier>
www.ambinter.com

>  <Ambinter_reference>
Amb9794503

>  <MW>
286.241

$$$$

